@<TRIPOS>MOLECULE
1k8.pdb
 31 33 0 0 0
SMALL
GASTEIGER

@<TRIPOS>ATOM
      1 CL1        32.8520   17.2290  -36.5610 Cl    1106  1K81106    -0.0800
      2  C1        33.3130   12.8890  -38.6600 C.3   1106  1K81106     0.0117
      3  N1        32.2300   12.5570  -37.7200 N.3   1106  1K81106    -0.3130
      4  C2        32.9270   14.0130  -39.6230 C.3   1106  1K81106     0.0261
      5  C3        33.0050   20.3450  -40.6890 C.ar  1106  1K81106    -0.0525
      6  N3        32.2200   15.0820  -38.9170 N.pl3 1106  1K81106    -0.3116
      7  C4        31.2300   14.7600  -37.8940 C.3   1106  1K81106     0.0261
      8  C5        31.8730   13.7570  -36.9490 C.3   1106  1K81106     0.0117
      9  C6        32.9090   20.5580  -42.0650 C.ar  1106  1K81106    -0.0611
     10  C7        32.6320   19.5040  -42.9390 C.ar  1106  1K81106    -0.0597
     11  C8        32.4350   16.4170  -39.3010 C.ar  1106  1K81106     0.1405
     12  C9        32.7280   17.5210  -38.3290 C.ar  1106  1K81106     0.0814
     13  C10       32.9140   18.8170  -38.8040 C.ar  1106  1K81106    -0.0309
     14  C11       32.8250   19.0670  -40.1690 C.ar  1106  1K81106     0.0019
     15  C12       32.5310   17.9460  -41.1010 C.ar  1106  1K81106     0.0732
     16  C13       32.4430   18.2060  -42.4640 C.ar  1106  1K81106    -0.0357
     17  N13       32.3510   16.6960  -40.6240 N.ar  1106  1K81106    -0.2305
     18 H          33.5527   12.0157  -39.2299 H     1106  1K81106     0.0439
     19 H          34.1508   13.2255  -38.0858 H     1106  1K81106     0.0439
     20 H          32.5434   11.8238  -37.0840 H     1106  1K81106     0.1220
     21 H          32.2914   13.6172  -40.3874 H     1106  1K81106     0.0477
     22 H          33.8192   14.4177  -40.0532 H     1106  1K81106     0.0477
     23 H          33.2094   21.1351  -40.0574 H     1106  1K81106     0.0624
     24 H          30.3602   14.3320  -38.3469 H     1106  1K81106     0.0477
     25 H          30.9276   15.6404  -37.3664 H     1106  1K81106     0.0477
     26 H          32.7533   14.1826  -36.5145 H     1106  1K81106     0.0439
     27 H          31.1916   13.5012  -36.1647 H     1106  1K81106     0.0439
     28 H          33.0447   21.5088  -42.4426 H     1106  1K81106     0.0618
     29 H          32.5661   19.6885  -43.9522 H     1106  1K81106     0.0618
     30 H          33.1166   19.5868  -38.1472 H     1106  1K81106     0.0640
     31 H          32.2380   17.4394  -43.1238 H     1106  1K81106     0.0639
@<TRIPOS>BOND
     1     1    12    1
     2     2     3    1
     3     2     4    1
     4     3     8    1
     5     4     6    1
     6     5     9   ar
     7     5    14   ar
     8     6     7    1
     9     6    11    1
    10     7     8    1
    11     9    10   ar
    12    10    16   ar
    13    11    12   ar
    14    11    17   ar
    15    12    13   ar
    16    13    14   ar
    17    14    15   ar
    18    15    16   ar
    19    15    17   ar
    20     2    18    1
    21     2    19    1
    22     3    20    1
    23     4    21    1
    24     4    22    1
    25     5    23    1
    26     7    24    1
    27     7    25    1
    28     8    26    1
    29     8    27    1
    30     9    28    1
    31    10    29    1
    32    13    30    1
    33    16    31    1
