@<TRIPOS>MOLECULE
1ke.pdb
 25 26 0 0 0
SMALL
GASTEIGER

@<TRIPOS>ATOM
      1 CL1        32.9730   17.3920  -37.4280 Cl    1104  1KE1104    -0.0800
      2  C1        31.8160   13.6340  -37.3610 C.3   1104  1KE1104     0.0117
      3  N1        32.0830   12.4290  -38.1540 N.3   1104  1KE1104    -0.3130
      4  C2        31.2650   14.7230  -38.2730 C.3   1104  1KE1104     0.0261
      5  N3        32.1790   14.9180  -39.4010 N.pl3 1104  1KE1104    -0.3116
      6  C4        32.8930   13.8080  -40.0380 C.3   1104  1KE1104     0.0261
      7  C5        33.2230   12.7040  -39.0360 C.3   1104  1KE1104     0.0117
      8  C8        32.3330   16.1940  -39.9750 C.ar  1104  1KE1104     0.1398
      9  C9        32.6920   17.4200  -39.2020 C.ar  1104  1KE1104     0.0818
     10  C10       32.8090   18.6220  -39.8950 C.ar  1104  1KE1104    -0.0254
     11  C11       32.5930   18.6480  -41.2710 C.ar  1104  1KE1104     0.0330
     12  C12       32.2600   17.4790  -41.9550 C.ar  1104  1KE1104     0.0429
     13  N13       32.1400   16.3080  -41.3110 N.ar  1104  1KE1104    -0.2378
     14  I1        32.7670   20.4480  -42.3180 I     1104  1KE1104    -0.0422
     15 H          32.7243   13.9726  -36.9079 H     1104  1KE1104     0.0439
     16 H          31.1014   13.4100  -36.5968 H     1104  1KE1104     0.0439
     17 H          31.2626   12.1947  -38.7130 H     1104  1KE1104     0.1220
     18 H          31.1746   15.6370  -37.7241 H     1104  1KE1104     0.0477
     19 H          30.3022   14.4318  -38.6379 H     1104  1KE1104     0.0477
     20 H          33.8041   14.1777  -40.4601 H     1104  1KE1104     0.0477
     21 H          32.2612   13.3944  -40.7961 H     1104  1KE1104     0.0477
     22 H          33.4740   11.8116  -39.5703 H     1104  1KE1104     0.0439
     23 H          34.0462   13.0280  -38.4342 H     1104  1KE1104     0.0439
     24 H          33.0544   19.4890  -39.3920 H     1104  1KE1104     0.0644
     25 H          32.1031   17.5153  -42.9744 H     1104  1KE1104     0.0841
@<TRIPOS>BOND
     1     1     9    1
     2     2     3    1
     3     2     4    1
     4     3     7    1
     5     4     5    1
     6     5     6    1
     7     5     8    1
     8     6     7    1
     9     8     9   ar
    10     8    13   ar
    11     9    10   ar
    12    10    11   ar
    13    11    12   ar
    14    11    14    1
    15    12    13   ar
    16     2    15    1
    17     2    16    1
    18     3    17    1
    19     4    18    1
    20     4    19    1
    21     6    20    1
    22     6    21    1
    23     7    22    1
    24     7    23    1
    25    10    24    1
    26    12    25    1
