@<TRIPOS>MOLECULE
3yi.pdb
 99 102 0 0 0
SMALL
GASTEIGER

@<TRIPOS>ATOM
      1  C1        34.4520  -22.8540   -1.7730 C.ar  1208  3YI1208     0.1501
      2  N1        34.3270  -23.7450    0.4950 N.am  1208  3YI1208    -0.2782
      3  O1        35.6900  -23.4000   -1.8950 O.3   1208  3YI1208    -0.5042
      4  C2        33.7550  -23.0330   -0.5840 C.ar  1208  3YI1208     0.0902
      5  O2        35.7940  -22.4660   -4.2030 O.3   1208  3YI1208    -0.5057
      6  C3        32.4580  -22.4460   -0.4690 C.ar  1208  3YI1208     0.0809
      7  O3        32.0530  -19.9200   -5.9280 O.3   1208  3YI1208    -0.4436
      8  C4        31.8630  -21.7290   -1.4790 C.ar  1208  3YI1208     0.1376
      9  O4        29.7850  -20.1820   -3.2530 O.2   1208  3YI1208    -0.2836
     10  C5        32.0390  -20.8340   -3.7800 C.ar  1208  3YI1208     0.0788
     11  O5        31.2570  -17.9550   -5.0670 O.2   1208  3YI1208    -0.4528
     12  C6        32.7190  -20.6600   -4.9620 C.ar  1208  3YI1208     0.1435
     13  O6        34.3130  -16.6940   -2.5280 O.3   1208  3YI1208    -0.3753
     14  C7        34.0080  -21.2020   -5.1460 C.ar  1208  3YI1208     0.0342
     15  O7        31.8510  -16.7420    0.7480 O.3   1208  3YI1208    -0.4608
     16  C8        34.5470  -21.9150   -4.0830 C.ar  1208  3YI1208     0.1346
     17  O8        32.8140  -15.0510    1.8970 O.2   1208  3YI1208    -0.2512
     18  C9        33.8640  -22.1160   -2.8370 C.ar  1208  3YI1208     0.0714
     19  O9        35.0570  -18.0740    2.6490 O.3   1208  3YI1208    -0.3910
     20  C10       32.5690  -21.5420   -2.7160 C.ar  1208  3YI1208     0.0456
     21  O10       35.4430  -20.5540    3.2700 O.3   1208  3YI1208    -0.3909
     22  C11       30.7700  -20.1510   -3.9310 C.2   1208  3YI1208     0.2505
     23  O11       32.8220  -25.4650    0.1710 O.2   1208  3YI1208    -0.2702
     24  C12       30.9280  -19.3340   -5.2260 C.3   1208  3YI1208     0.3143
     25  O12       30.6300  -21.2080   -1.3030 O.3   1208  3YI1208    -0.5054
     26  C13       29.7120  -19.5300   -6.1070 C.3   1208  3YI1208     0.0210
     27  O13       30.4840  -22.9760    0.6970 O.2   1208  3YI1208    -0.2955
     28  C14       34.7420  -21.0190   -6.4040 C.3   1208  3YI1208    -0.0327
     29  C15       33.7630  -25.0280    0.8260 C.2   1208  3YI1208     0.2441
     30  C16       34.3810  -25.7820    1.9470 C.2   1208  3YI1208     0.0115
     31  C17       34.4710  -25.2520    3.1990 C.2   1208  3YI1208    -0.0542
     32  C18       33.9670  -23.9380    3.5900 C.2   1208  3YI1208    -0.0649
     33  C19       34.5850  -23.1180    4.4370 C.2   1208  3YI1208    -0.0787
     34  C20       34.0020  -21.7820    4.8300 C.3   1208  3YI1208     0.0009
     35  C21       34.1220  -20.7600    3.6660 C.3   1208  3YI1208     0.0661
     36  C22       33.5360  -19.3540    4.0840 C.3   1208  3YI1208     0.0091
     37  C23       33.7080  -18.2770    2.9410 C.3   1208  3YI1208     0.0661
     38  C24       33.0090  -18.7110    1.6100 C.3   1208  3YI1208     0.0200
     39  C25       33.0370  -17.5460    0.5700 C.3   1208  3YI1208     0.1131
     40  C26       33.0650  -18.0680   -0.8990 C.3   1208  3YI1208     0.0236
     41  C27       33.0360  -16.8580   -1.9210 C.3   1208  3YI1208     0.0854
     42  C28       31.9740  -17.1310   -2.9530 C.2   1208  3YI1208    -0.0208
     43  C29       32.2570  -17.7050   -4.1230 C.2   1208  3YI1208     0.0882
     44  C30       34.9290  -27.1270    1.6930 C.3   1208  3YI1208    -0.0348
     45  C31       32.5280  -21.8650    5.2600 C.3   1208  3YI1208    -0.0566
     46  C32       34.1940  -18.8280    5.3500 C.3   1208  3YI1208    -0.0577
     47  C33       31.5870  -19.2050    1.8350 C.3   1208  3YI1208    -0.0567
     48  C34       34.3010  -18.9530   -1.1410 C.3   1208  3YI1208    -0.0564
     49  C35       31.9710  -15.4230    1.0920 C.2   1208  3YI1208     0.3042
     50  C36       31.0150  -14.4780    0.4380 C.3   1208  3YI1208     0.0332
     51  C37       35.0740  -15.6490   -1.9780 C.3   1208  3YI1208     0.0372
     52  C38       31.6270  -22.5610    0.7350 C.2   1208  3YI1208     0.1556
     53 H          35.0854  -23.3762    1.0030 H     1208  3YI1208     0.1552
     54 H          36.0612  -23.8831   -1.1831 H     1208  3YI1208     0.2923
     55 H          36.2781  -22.3609   -4.9984 H     1208  3YI1208     0.2922
     56 H          35.5248  -17.8025    3.4542 H     1208  3YI1208     0.2098
     57 H          35.8368  -21.4000    3.0051 H     1208  3YI1208     0.2098
     58 H          30.1786  -21.3362   -0.4920 H     1208  3YI1208     0.2922
     59 H          29.8269  -18.9602   -7.0054 H     1208  3YI1208     0.0309
     60 H          28.8372  -19.2015   -5.5857 H     1208  3YI1208     0.0309
     61 H          29.6127  -20.5667   -6.3524 H     1208  3YI1208     0.0309
     62 H          34.1482  -20.4434   -7.0829 H     1208  3YI1208     0.0280
     63 H          34.9525  -21.9748   -6.8364 H     1208  3YI1208     0.0280
     64 H          35.6603  -20.5054   -6.2097 H     1208  3YI1208     0.0280
     65 H          34.9302  -25.8223    3.9263 H     1208  3YI1208     0.0622
     66 H          33.0722  -23.6245    3.1824 H     1208  3YI1208     0.0615
     67 H          35.4917  -23.4047    4.8379 H     1208  3YI1208     0.0576
     68 H          34.5744  -21.4571    5.6736 H     1208  3YI1208     0.0365
     69 H          33.5671  -21.1825    2.8546 H     1208  3YI1208     0.0602
     70 H          32.4927  -19.5112    4.2619 H     1208  3YI1208     0.0348
     71 H          33.2550  -17.3812    3.3114 H     1208  3YI1208     0.0600
     72 H          33.5641  -19.5369    1.2168 H     1208  3YI1208     0.0359
     73 H          33.9282  -16.9776    0.7360 H     1208  3YI1208     0.0741
     74 H          32.1913  -18.6648   -1.0583 H     1208  3YI1208     0.0362
     75 H          32.8054  -15.9473   -1.4089 H     1208  3YI1208     0.0645
     76 H          30.9978  -16.8659   -2.7487 H     1208  3YI1208     0.0628
     77 H          33.2317  -17.9693   -4.3352 H     1208  3YI1208     0.1022
     78 H          34.7752  -27.3868    0.6665 H     1208  3YI1208     0.0279
     79 H          34.4325  -27.8385    2.3192 H     1208  3YI1208     0.0279
     80 H          35.9770  -27.1318    1.9090 H     1208  3YI1208     0.0279
     81 H          31.9326  -22.1886    4.4320 H     1208  3YI1208     0.0236
     82 H          32.1958  -20.9005    5.5828 H     1208  3YI1208     0.0236
     83 H          32.4299  -22.5637    6.0645 H     1208  3YI1208     0.0236
     84 H          35.2372  -18.6712    5.1710 H     1208  3YI1208     0.0234
     85 H          34.0706  -19.5406    6.1386 H     1208  3YI1208     0.0234
     86 H          33.7372  -17.9021    5.6311 H     1208  3YI1208     0.0234
     87 H          30.9911  -18.4088    2.2299 H     1208  3YI1208     0.0234
     88 H          31.5980  -20.0200    2.5283 H     1208  3YI1208     0.0234
     89 H          31.1722  -19.5335    0.9050 H     1208  3YI1208     0.0234
     90 H          35.1887  -18.3757   -0.9870 H     1208  3YI1208     0.0234
     91 H          34.2848  -19.3213   -2.1455 H     1208  3YI1208     0.0234
     92 H          34.2887  -19.7771   -0.4587 H     1208  3YI1208     0.0234
     93 H          30.3733  -15.0211   -0.2240 H     1208  3YI1208     0.0342
     94 H          31.5619  -13.7447   -0.1171 H     1208  3YI1208     0.0342
     95 H          30.4255  -13.9918    1.1870 H     1208  3YI1208     0.0342
     96 H          36.0151  -15.5887   -2.4836 H     1208  3YI1208     0.0524
     97 H          35.2394  -15.8374   -0.9378 H     1208  3YI1208     0.0524
     98 H          34.5471  -14.7249   -2.0937 H     1208  3YI1208     0.0524
     99 H          32.0256  -22.2804    1.6446 H     1208  3YI1208     0.1083
@<TRIPOS>BOND
     1     1     3    1
     2     1     4   ar
     3     1    18   ar
     4     2     4    1
     5     2    29   am
     6     4     6   ar
     7     5    16    1
     8     6     8   ar
     9     6    52    1
    10     7    12    1
    11     7    24    1
    12     8    20   ar
    13     8    25    1
    14     9    22    2
    15    10    12   ar
    16    10    20   ar
    17    10    22    1
    18    11    24    1
    19    11    43    1
    20    12    14   ar
    21    13    41    1
    22    13    51    1
    23    14    16   ar
    24    14    28    1
    25    15    39    1
    26    15    49    1
    27    16    18   ar
    28    17    49    2
    29    18    20   ar
    30    19    37    1
    31    21    35    1
    32    22    24    1
    33    23    29    2
    34    24    26    1
    35    27    52    2
    36    29    30    1
    37    30    31    2
    38    30    44    1
    39    31    32    1
    40    32    33    2
    41    33    34    1
    42    34    35    1
    43    34    45    1
    44    35    36    1
    45    36    37    1
    46    36    46    1
    47    37    38    1
    48    38    39    1
    49    38    47    1
    50    39    40    1
    51    40    41    1
    52    40    48    1
    53    41    42    1
    54    42    43    2
    55    49    50    1
    56     2    53    1
    57     3    54    1
    58     5    55    1
    59    19    56    1
    60    21    57    1
    61    25    58    1
    62    26    59    1
    63    26    60    1
    64    26    61    1
    65    28    62    1
    66    28    63    1
    67    28    64    1
    68    31    65    1
    69    32    66    1
    70    33    67    1
    71    34    68    1
    72    35    69    1
    73    36    70    1
    74    37    71    1
    75    38    72    1
    76    39    73    1
    77    40    74    1
    78    41    75    1
    79    42    76    1
    80    43    77    1
    81    44    78    1
    82    44    79    1
    83    44    80    1
    84    45    81    1
    85    45    82    1
    86    45    83    1
    87    46    84    1
    88    46    85    1
    89    46    86    1
    90    47    87    1
    91    47    88    1
    92    47    89    1
    93    48    90    1
    94    48    91    1
    95    48    92    1
    96    50    93    1
    97    50    94    1
    98    50    95    1
    99    51    96    1
   100    51    97    1
   101    51    98    1
   102    52    99    1
