@<TRIPOS>MOLECULE
5qe.pdb
 69 72 0 0 0
SMALL
GASTEIGER

@<TRIPOS>ATOM
      1  C1        11.3290   18.4430   11.1440 C.1   901  5QE901      0.1021
      2  N1        11.2890   18.2510   12.3000 N.1   901  5QE901     -0.1908
      3  C2        11.3500   18.6430    9.8770 C.ar  901  5QE901      0.0872
      4  C3        10.2810   19.2250    9.1890 C.ar  901  5QE901     -0.0161
      5  C4        10.3860   19.3940    7.7930 C.ar  901  5QE901      0.0225
      6  C5        11.5380   18.9470    7.0930 C.ar  901  5QE901      0.1284
      7  C6         9.0510   19.6900    9.9800 C.3   901  5QE901      0.0028
      8  N6        12.5240   18.3860    7.8110 N.ar  901  5QE901     -0.2242
      9  C7        12.4810   18.2110    9.1660 C.ar  901  5QE901      0.1167
     10  C8         9.2500   20.1370    7.0900 C.3   901  5QE901      0.0769
     11  O8         8.5660   20.9580    8.0150 O.3   901  5QE901     -0.3689
     12  S8        13.8410   17.4950    9.8860 S.3   901  5QE901     -0.1043
     13  C9        15.0790   17.4480    8.6220 C.3   901  5QE901      0.0037
     14  C10       14.8890   16.1670    7.7520 C.3   901  5QE901     -0.0183
     15  C11       16.0090   15.9410    6.7650 C.ar  901  5QE901     -0.0465
     16  C12       16.1720   16.7850    5.6650 C.ar  901  5QE901     -0.0568
     17  C13       17.2040   16.6160    4.7230 C.ar  901  5QE901     -0.0402
     18  C14       18.1390   15.5840    4.8850 C.ar  901  5QE901      0.0334
     19  C15       17.9470   14.7500    5.9990 C.ar  901  5QE901     -0.0402
     20  C16       16.8820   14.8980    6.9520 C.ar  901  5QE901     -0.0568
     21  C17        9.7560   19.1200    2.3660 C.3   901  5QE901     -0.0372
     22  N17       11.7430   19.0340    5.6940 N.pl3 901  5QE901     -0.3100
     23  C18       10.5760   19.1420    4.7630 C.3   901  5QE901      0.0396
     24  C19       10.9120   18.8310    3.3320 C.3   901  5QE901      0.0719
     25  C20       20.2870   15.0170    1.8440 C.3   901  5QE901      0.0125
     26  O20       12.1330   19.3910    2.9070 O.3   901  5QE901     -0.3708
     27  C21       13.2170   18.8200    3.6240 C.3   901  5QE901      0.0719
     28  C22       13.0880   18.8470    5.1560 C.3   901  5QE901      0.0396
     29  C24       14.5790   19.2690    3.1550 C.3   901  5QE901     -0.0372
     30  C25        7.0740   21.2160    9.8490 C.3   901  5QE901     -0.0358
     31  C26        7.0560   19.1010    8.6380 C.3   901  5QE901     -0.0358
     32  N27       19.2420   15.2940    3.9760 N.am  901  5QE901     -0.2857
     33  C28       19.1310   15.4390    2.6840 C.2   901  5QE901      0.2141
     34  C30        7.9530   20.2390    9.0940 C.3   901  5QE901      0.0684
     35  O30       18.1280   15.8910    2.1160 O.2   901  5QE901     -0.2758
     36 H           9.3539   20.4563   10.6626 H     901  5QE901      0.0341
     37 H           8.6555   18.8361   10.4893 H     901  5QE901      0.0341
     38 H           8.5666   19.4271    6.6729 H     901  5QE901      0.0611
     39 H           9.6576   20.7478    6.3117 H     901  5QE901      0.0611
     40 H          16.0488   17.4313    9.0737 H     901  5QE901      0.0383
     41 H          14.9878   18.3156    8.0024 H     901  5QE901      0.0383
     42 H          13.9717   16.2588    7.2089 H     901  5QE901      0.0321
     43 H          14.8821   15.3303    8.4190 H     901  5QE901      0.0321
     44 H          15.5084   17.5650    5.5373 H     901  5QE901      0.0621
     45 H          17.2724   17.2518    3.9130 H     901  5QE901      0.0636
     46 H          18.6168   13.9781    6.1427 H     901  5QE901      0.0636
     47 H          16.7774   14.2463    7.7454 H     901  5QE901      0.0621
     48 H           8.8588   18.6720    2.7392 H     901  5QE901      0.0255
     49 H           9.9848   18.7119    1.4037 H     901  5QE901      0.0255
     50 H           9.6180   20.1777    2.2812 H     901  5QE901      0.0255
     51 H          10.1972   20.1416    4.8112 H     901  5QE901      0.0489
     52 H           9.8564   18.4161    5.0793 H     901  5QE901      0.0489
     53 H          11.0598   17.7716    3.3039 H     901  5QE901      0.0609
     54 H          21.0709   14.6514    2.4739 H     901  5QE901      0.0323
     55 H          20.6431   15.8542    1.2808 H     901  5QE901      0.0323
     56 H          19.9771   14.2423    1.1741 H     901  5QE901      0.0323
     57 H          13.1374   17.7852    3.3638 H     901  5QE901      0.0609
     58 H          13.4612   17.9165    5.5300 H     901  5QE901      0.0489
     59 H          13.6410   19.7070    5.4714 H     901  5QE901      0.0489
     60 H          14.7142   20.3039    3.3909 H     901  5QE901      0.0255
     61 H          14.6550   19.1316    2.0966 H     901  5QE901      0.0255
     62 H          15.3337   18.6900    3.6449 H     901  5QE901      0.0255
     63 H           7.6669   22.0385   10.1908 H     901  5QE901      0.0257
     64 H           6.6313   20.7222   10.6887 H     901  5QE901      0.0257
     65 H           6.3033   21.5770    9.2005 H     901  5QE901      0.0257
     66 H           7.6372   18.3833    8.0976 H     901  5QE901      0.0257
     67 H           6.2855   19.4865    8.0035 H     901  5QE901      0.0257
     68 H           6.6135   18.6316    9.4917 H     901  5QE901      0.0257
     69 H          20.0970   14.9790    4.3488 H     901  5QE901      0.1548
@<TRIPOS>BOND
     1     1     2    3
     2     1     3    1
     3     3     4   ar
     4     3     9   ar
     5     4     7    1
     6     4     5   ar
     7     5    10    1
     8     5     6   ar
     9     6    22    1
    10     6     8   ar
    11     7    34    1
    12     8     9   ar
    13     9    12    1
    14    10    11    1
    15    11    34    1
    16    12    13    1
    17    13    14    1
    18    14    15    1
    19    15    16   ar
    20    15    20   ar
    21    16    17   ar
    22    17    18   ar
    23    18    19   ar
    24    18    32    1
    25    19    20   ar
    26    21    24    1
    27    22    23    1
    28    22    28    1
    29    23    24    1
    30    24    26    1
    31    25    33    1
    32    26    27    1
    33    27    28    1
    34    27    29    1
    35    30    34    1
    36    31    34    1
    37    32    33   am
    38    33    35    2
    39     7    36    1
    40     7    37    1
    41    10    38    1
    42    10    39    1
    43    13    40    1
    44    13    41    1
    45    14    42    1
    46    14    43    1
    47    16    44    1
    48    17    45    1
    49    19    46    1
    50    20    47    1
    51    21    48    1
    52    21    49    1
    53    21    50    1
    54    23    51    1
    55    23    52    1
    56    24    53    1
    57    25    54    1
    58    25    55    1
    59    25    56    1
    60    27    57    1
    61    28    58    1
    62    28    59    1
    63    29    60    1
    64    29    61    1
    65    29    62    1
    66    30    63    1
    67    30    64    1
    68    30    65    1
    69    31    66    1
    70    31    67    1
    71    31    68    1
    72    32    69    1
