@<TRIPOS>MOLECULE
5qf.pdb
 75 78 0 0 0
SMALL
GASTEIGER

@<TRIPOS>ATOM
      1  C1        10.0170   18.9230    9.5260 C.ar  901  5QF901     -0.0161
      2  C2         9.8820   19.1640    8.1410 C.ar  901  5QF901      0.0225
      3  C3        10.9430   18.8660    7.2620 C.ar  901  5QF901      0.1283
      4  N4        12.0550   18.3260    7.7970 N.ar  901  5QF901     -0.2242
      5  C5        12.2310   18.1150    9.1280 C.ar  901  5QF901      0.1167
      6  C6        11.2280   18.4080   10.0280 C.ar  901  5QF901      0.0872
      7  C7        11.4260   18.1340   11.2840 C.1   901  5QF901      0.1021
      8  N8        11.4460   17.9030   12.4420 N.1   901  5QF901     -0.1908
      9  S9        13.7040   17.4470    9.6410 S.3   901  5QF901     -0.1043
     10  C10       14.9250   17.6850    8.3600 C.3   901  5QF901      0.0037
     11  C11       14.6960   16.6290    7.3270 C.3   901  5QF901     -0.0182
     12  C12       15.7130   16.4840    6.2020 C.ar  901  5QF901     -0.0429
     13  C13       16.9190   15.7980    6.3590 C.ar  901  5QF901     -0.0549
     14  C14       17.7950   15.6280    5.2530 C.ar  901  5QF901     -0.0160
     15  C15       17.4760   16.0800    3.9830 C.ar  901  5QF901      0.1615
     16  C16       16.2830   16.7480    3.8440 C.ar  901  5QF901      0.1617
     17  C17       15.3880   16.9190    4.9250 C.ar  901  5QF901     -0.0131
     18  O18       15.9110   17.1920    2.6160 O.3   901  5QF901     -0.4914
     19  O19       18.3780   15.8860    2.9490 O.3   901  5QF901     -0.4915
     20  C20       14.6690   16.7350    2.0360 C.3   901  5QF901      0.0790
     21  C21       18.1580   15.2800    1.6740 C.3   901  5QF901      0.0790
     22  N22       10.9480   18.9510    5.8430 N.pl3 901  5QF901     -0.3124
     23  C23        9.8150   18.4970    5.0190 C.3   901  5QF901      0.0263
     24  C24        9.3330   19.6330    4.1020 C.3   901  5QF901      0.0148
     25  N25       10.4150   20.0710    3.2140 N.3   901  5QF901     -0.2972
     26  C26       11.6320   20.3320    4.0200 C.3   901  5QF901      0.0148
     27  C27       12.0980   19.2590    5.0240 C.3   901  5QF901      0.0263
     28  C28       10.6680   19.1250    2.1150 C.3   901  5QF901      0.0224
     29  C29       11.3480   19.8730    0.9760 C.3   901  5QF901      0.0600
     30  O30       12.5520   19.1600    0.6530 O.3   901  5QF901     -0.3817
     31  C31       12.5570   18.4220   -0.5850 C.3   901  5QF901      0.0365
     32  C32        8.9130   19.2600   10.5000 C.3   901  5QF901      0.0028
     33  C33        7.7010   19.9500    9.8590 C.3   901  5QF901      0.0684
     34  O34        8.0690   20.5890    8.6420 O.3   901  5QF901     -0.3689
     35  C35        8.5880   19.7520    7.6460 C.3   901  5QF901      0.0769
     36  C36        7.1650   21.0490   10.7580 C.3   901  5QF901     -0.0358
     37  C37        6.5720   18.9550    9.6090 C.3   901  5QF901     -0.0358
     38 H          15.9089   17.5896    8.7695 H     901  5QF901      0.0383
     39 H          14.8382   18.6610    7.9302 H     901  5QF901      0.0383
     40 H          13.7484   16.8308    6.8729 H     901  5QF901      0.0321
     41 H          14.7706   15.7097    7.8694 H     901  5QF901      0.0321
     42 H          17.1751   15.4130    7.2816 H     901  5QF901      0.0621
     43 H          18.6987   15.1521    5.4008 H     901  5QF901      0.0655
     44 H          14.4769   17.3754    4.7615 H     901  5QF901      0.0658
     45 H          14.5385   17.1837    1.0734 H     901  5QF901      0.0660
     46 H          13.8548   17.0126    2.6723 H     901  5QF901      0.0660
     47 H          14.6940   15.6703    1.9327 H     901  5QF901      0.0660
     48 H          19.0686   15.2904    1.1123 H     901  5QF901      0.0660
     49 H          17.4059   15.8266    1.1443 H     901  5QF901      0.0660
     50 H          17.8347   14.2692    1.8105 H     901  5QF901      0.0660
     51 H           9.0121   18.1949    5.6586 H     901  5QF901      0.0477
     52 H          10.1323   17.6729    4.4148 H     901  5QF901      0.0477
     53 H           9.0144   20.4592    4.7027 H     901  5QF901      0.0442
     54 H           8.5198   19.2749    3.5058 H     901  5QF901      0.0442
     55 H          11.4551   21.2286    4.5765 H     901  5QF901      0.0442
     56 H          12.4196   20.3713    3.2968 H     901  5QF901      0.0442
     57 H          12.4296   18.3839    4.5052 H     901  5QF901      0.0477
     58 H          12.9181   19.6075    5.6164 H     901  5QF901      0.0477
     59 H           9.7413   18.7134    1.7733 H     901  5QF901      0.0449
     60 H          11.2965   18.3289    2.4557 H     901  5QF901      0.0449
     61 H          11.5847   20.8703    1.2831 H     901  5QF901      0.0572
     62 H          10.7032   19.9315    0.1241 H     901  5QF901      0.0572
     63 H          13.5037   17.9389   -0.7084 H     901  5QF901      0.0523
     64 H          12.3901   19.0935   -1.4012 H     901  5QF901      0.0523
     65 H          11.7809   17.6857   -0.5644 H     901  5QF901      0.0523
     66 H           9.3129   19.9109   11.2492 H     901  5QF901      0.0341
     67 H           8.5629   18.3325   10.9026 H     901  5QF901      0.0341
     68 H           7.8921   18.9669    7.4359 H     901  5QF901      0.0611
     69 H           8.7591   20.3115    6.7502 H     901  5QF901      0.0611
     70 H           7.9391   21.7624   10.9496 H     901  5QF901      0.0257
     71 H           6.8348   20.6240   11.6828 H     901  5QF901      0.0257
     72 H           6.3432   21.5355   10.2755 H     901  5QF901      0.0257
     73 H           6.9242   18.1675    8.9760 H     901  5QF901      0.0257
     74 H           5.7541   19.4555    9.1342 H     901  5QF901      0.0257
     75 H           6.2458   18.5441   10.5415 H     901  5QF901      0.0257
@<TRIPOS>BOND
     1     1     2   ar
     2     1     6   ar
     3     1    32    1
     4     2     3   ar
     5     2    35    1
     6     3     4   ar
     7     3    22    1
     8     4     5   ar
     9     5     6   ar
    10     5     9    1
    11     6     7    1
    12     7     8    3
    13     9    10    1
    14    10    11    1
    15    11    12    1
    16    12    13   ar
    17    12    17   ar
    18    13    14   ar
    19    14    15   ar
    20    15    16   ar
    21    15    19    1
    22    16    17   ar
    23    16    18    1
    24    18    20    1
    25    19    21    1
    26    22    23    1
    27    22    27    1
    28    23    24    1
    29    24    25    1
    30    25    26    1
    31    25    28    1
    32    26    27    1
    33    28    29    1
    34    29    30    1
    35    30    31    1
    36    32    33    1
    37    33    34    1
    38    33    36    1
    39    33    37    1
    40    34    35    1
    41    10    38    1
    42    10    39    1
    43    11    40    1
    44    11    41    1
    45    13    42    1
    46    14    43    1
    47    17    44    1
    48    20    45    1
    49    20    46    1
    50    20    47    1
    51    21    48    1
    52    21    49    1
    53    21    50    1
    54    23    51    1
    55    23    52    1
    56    24    53    1
    57    24    54    1
    58    26    55    1
    59    26    56    1
    60    27    57    1
    61    27    58    1
    62    28    59    1
    63    28    60    1
    64    29    61    1
    65    29    62    1
    66    31    63    1
    67    31    64    1
    68    31    65    1
    69    32    66    1
    70    32    67    1
    71    35    68    1
    72    35    69    1
    73    36    70    1
    74    36    71    1
    75    36    72    1
    76    37    73    1
    77    37    74    1
    78    37    75    1
