@<TRIPOS>MOLECULE
5qg.pdb
 56 59 0 0 0
SMALL
GASTEIGER

@<TRIPOS>ATOM
      1  C1        11.1670   18.3410   11.3920 C.1   901  5QG901      0.1021
      2  N1        11.3390   18.0660   12.5310 N.1   901  5QG901     -0.1908
      3  C2        11.1250   18.6250   10.1240 C.ar  901  5QG901      0.0872
      4  C3        10.0060   19.2280    9.5020 C.ar  901  5QG901     -0.0161
      5  C4        10.0110   19.4650    8.1040 C.ar  901  5QG901      0.0225
      6  C5        11.1370   19.0620    7.3180 C.ar  901  5QG901      0.1284
      7  C6         8.8100   19.6400   10.3710 C.3   901  5QG901      0.0028
      8  N6        12.1660   18.4800    7.9910 N.ar  901  5QG901     -0.2242
      9  C7        12.2100   18.2420    9.3300 C.ar  901  5QG901      0.1167
     10  O8         7.6090   19.8890    8.2450 O.3   901  5QG901     -0.3689
     11  S8        13.6360   17.5000    9.9480 S.3   901  5QG901     -0.1043
     12  C9        14.9380   17.4970    8.7180 C.3   901  5QG901      0.0037
     13  C10       14.9010   16.2010    7.9330 C.3   901  5QG901     -0.0183
     14  C11       15.9010   16.1500    6.7920 C.ar  901  5QG901     -0.0466
     15  C12       15.7330   16.9550    5.6650 C.ar  901  5QG901     -0.0585
     16  C13       16.6200   16.9410    4.5820 C.ar  901  5QG901     -0.0615
     17  C14       17.7070   16.0780    4.6300 C.ar  901  5QG901     -0.0617
     18  C15       17.8720   15.2510    5.7400 C.ar  901  5QG901     -0.0615
     19  C16       16.9740   15.2820    6.8140 C.ar  901  5QG901     -0.0585
     20  C17        8.7910   20.1460    7.5060 C.3   901  5QG901      0.0769
     21  N17       11.3590   19.2010    5.9000 N.pl3 901  5QG901     -0.3105
     22  C18       10.3040   19.2370    4.8850 C.3   901  5QG901      0.0370
     23  C19       10.8590   19.2980    3.4560 C.3   901  5QG901      0.0634
     24  C20        6.2830   19.6580   10.1230 C.3   901  5QG901     -0.0358
     25  O20       11.8920   18.3370    3.2200 O.3   901  5QG901     -0.3767
     26  C21       12.9100   18.2960    4.2310 C.3   901  5QG901      0.0634
     27  C22       12.7210   19.3130    5.3670 C.3   901  5QG901      0.0370
     28  C23        7.5820   21.7630    9.6760 C.3   901  5QG901     -0.0358
     29  C30        7.6030   20.2370    9.6140 C.3   901  5QG901      0.0684
     30 H           9.1512   20.3713   11.0737 H     901  5QG901      0.0341
     31 H           8.4531   18.7372   10.8211 H     901  5QG901      0.0341
     32 H          15.8864   17.5904    9.2046 H     901  5QG901      0.0383
     33 H          14.7931   18.3192    8.0488 H     901  5QG901      0.0383
     34 H          13.9185   16.0800    7.5268 H     901  5QG901      0.0321
     35 H          15.1613   15.4164    8.6123 H     901  5QG901      0.0321
     36 H          14.9192   17.5886    5.6281 H     901  5QG901      0.0620
     37 H          16.4698   17.5570    3.7678 H     901  5QG901      0.0618
     38 H          18.3851   16.0493    3.8526 H     901  5QG901      0.0618
     39 H          18.6735   14.6017    5.7709 H     901  5QG901      0.0618
     40 H          17.1145   14.6557    7.6221 H     901  5QG901      0.0620
     41 H           8.6548   19.7899    6.5062 H     901  5QG901      0.0611
     42 H           8.9647   21.2016    7.5275 H     901  5QG901      0.0611
     43 H           9.6963   20.1015    5.0534 H     901  5QG901      0.0487
     44 H           9.7390   18.3327    4.9739 H     901  5QG901      0.0487
     45 H          11.2571   20.2764    3.2856 H     901  5QG901      0.0575
     46 H          10.0533   19.0749    2.7882 H     901  5QG901      0.0575
     47 H           6.3185   18.5898   10.0712 H     901  5QG901      0.0257
     48 H           5.4783   20.0179    9.5166 H     901  5QG901      0.0257
     49 H           6.1282   19.9610   11.1375 H     901  5QG901      0.0257
     50 H          13.8531   18.4884    3.7636 H     901  5QG901      0.0575
     51 H          12.8552   17.3258    4.6789 H     901  5QG901      0.0575
     52 H          13.4267   19.1132    6.1461 H     901  5QG901      0.0487
     53 H          12.8771   20.3023    4.9905 H     901  5QG901      0.0487
     54 H           8.5134   22.1474    9.3160 H     901  5QG901      0.0257
     55 H           7.4339   22.0768   10.6882 H     901  5QG901      0.0257
     56 H           6.7839   22.1337    9.0673 H     901  5QG901      0.0257
@<TRIPOS>BOND
     1     1     3    1
     2     1     2    3
     3     3     4   ar
     4     3     9   ar
     5     4     5   ar
     6     4     7    1
     7     5    20    1
     8     5     6   ar
     9     6    21    1
    10     6     8   ar
    11     7    29    1
    12     8     9   ar
    13     9    11    1
    14    10    20    1
    15    10    29    1
    16    11    12    1
    17    12    13    1
    18    13    14    1
    19    14    15   ar
    20    14    19   ar
    21    15    16   ar
    22    16    17   ar
    23    17    18   ar
    24    18    19   ar
    25    21    22    1
    26    21    27    1
    27    22    23    1
    28    23    25    1
    29    24    29    1
    30    25    26    1
    31    26    27    1
    32    28    29    1
    33     7    30    1
    34     7    31    1
    35    12    32    1
    36    12    33    1
    37    13    34    1
    38    13    35    1
    39    15    36    1
    40    16    37    1
    41    17    38    1
    42    18    39    1
    43    19    40    1
    44    20    41    1
    45    20    42    1
    46    22    43    1
    47    22    44    1
    48    23    45    1
    49    23    46    1
    50    24    47    1
    51    24    48    1
    52    24    49    1
    53    26    50    1
    54    26    51    1
    55    27    52    1
    56    27    53    1
    57    28    54    1
    58    28    55    1
    59    28    56    1
