@<TRIPOS>MOLECULE
aic.pdb
 86 90 0 0 0
SMALL
GASTEIGER

@<TRIPOS>ATOM
      1  C1        11.4500  -74.9620   45.4700 C.3   1109  AIC1109    -0.0484
      2  N1        15.4340  -78.8320   45.4030 N.am  1109  AIC1109    -0.3002
      3  O1         9.8150  -77.1310   47.5260 O.2   1109  AIC1109    -0.2489
      4  S1        13.5080  -76.6110   44.5240 S.3   1109  AIC1109    -0.1273
      5  C2        11.0180  -77.1190   47.7110 C.2   1109  AIC1109     0.3269
      6  N2        16.3770  -81.4310   44.2770 N.3   1109  AIC1109    -0.3163
      7  O2        11.4790  -76.9300   48.9620 O.3   1109  AIC1109    -0.4793
      8  C3        16.6990  -79.1070   44.9600 C.2   1109  AIC1109     0.2350
      9  N3        13.3930  -77.0670   47.1270 N.am  1109  AIC1109    -0.2708
     10  O3        17.6560  -78.5350   45.4560 O.2   1109  AIC1109    -0.2737
     11  C4        16.9240  -80.1280   43.8550 C.3   1109  AIC1109     0.1079
     12  O4        14.0320  -79.0730   48.3330 O.2   1109  AIC1109    -0.2734
     13  C5        18.4070  -80.2800   43.5480 C.ar  1109  AIC1109    -0.0219
     14  C6        11.8170  -76.4440   45.2190 C.3   1109  AIC1109     0.0417
     15  C7        18.9630  -79.6190   42.4260 C.ar  1109  AIC1109    -0.0566
     16  C8        20.3420  -79.7520   42.1280 C.ar  1109  AIC1109    -0.0614
     17  C9        21.1730  -80.5520   42.9560 C.ar  1109  AIC1109    -0.0617
     18  C10       20.6200  -81.2150   44.0800 C.ar  1109  AIC1109    -0.0614
     19  C11       19.2410  -81.0830   44.3790 C.ar  1109  AIC1109    -0.0566
     20  C12       12.0410  -77.3070   46.5640 C.3   1109  AIC1109     0.1379
     21  C13       14.3740  -76.6320   46.1200 C.3   1109  AIC1109     0.1005
     22  C14       15.2340  -77.8440   46.4920 C.3   1109  AIC1109     0.1277
     23  C15       14.1760  -78.1820   47.5130 C.2   1109  AIC1109     0.2402
     24  C16       10.7510  -77.1160   44.3190 C.3   1109  AIC1109    -0.0484
     25  C1        -4.8190  -70.6500   44.2160 C.3   1110  AIC1110    -0.0484
     26  N1        -1.4520  -74.8350   42.7990 N.am  1110  AIC1110    -0.3002
     27  O1        -5.7840  -70.7220   40.9660 O.2   1110  AIC1110    -0.2489
     28  S1        -2.4930  -72.3050   44.0220 S.3   1110  AIC1110    -0.1273
     29  C2        -5.5520  -71.8350   41.4010 C.2   1110  AIC1110     0.3269
     30  N2         1.1460  -74.4410   42.1340 N.3   1110  AIC1110    -0.3163
     31  O2        -6.4810  -72.7980   41.2440 O.3   1110  AIC1110    -0.4793
     32  C3        -0.5790  -75.8150   43.1850 C.2   1110  AIC1110     0.2350
     33  N3        -4.3850  -73.5560   42.6910 N.am  1110  AIC1110    -0.2708
     34  O3        -0.9920  -76.7990   43.7780 O.2   1110  AIC1110    -0.2737
     35  C4         0.9050  -75.6920   42.8770 C.3   1110  AIC1110     0.1079
     36  O4        -4.0560  -75.1150   40.8610 O.2   1110  AIC1110    -0.2734
     37  C5         1.3870  -76.8720   42.0440 C.ar  1110  AIC1110    -0.0219
     38  C6        -3.7120  -71.1610   43.2620 C.3   1110  AIC1110     0.0417
     39  C7         2.0720  -77.9400   42.6730 C.ar  1110  AIC1110    -0.0566
     40  C8         2.5270  -79.0460   41.9110 C.ar  1110  AIC1110    -0.0614
     41  C9         2.2980  -79.0830   40.5100 C.ar  1110  AIC1110    -0.0617
     42  C10        1.6130  -78.0160   39.8780 C.ar  1110  AIC1110    -0.0614
     43  C11        1.1580  -76.9100   40.6390 C.ar  1110  AIC1110    -0.0566
     44  C12       -4.2340  -72.1890   42.1330 C.3   1110  AIC1110     0.1379
     45  C13       -3.5250  -73.8060   43.8590 C.3   1110  AIC1110     0.1005
     46  C14       -2.8990  -74.9780   43.0950 C.3   1110  AIC1110     0.1277
     47  C15       -3.8460  -74.6480   41.9680 C.2   1110  AIC1110     0.2402
     48  C16       -2.9760  -69.9670   42.6060 C.3   1110  AIC1110    -0.0484
     49 H          12.1942  -74.5108   46.0925 H     1109  AIC1109     0.0244
     50 H          10.4981  -74.9076   45.9556 H     1109  AIC1109     0.0244
     51 H          11.4039  -74.4428   44.5356 H     1109  AIC1109     0.0244
     52 H          14.6595  -79.2878   45.0009 H     1109  AIC1109     0.1496
     53 H          15.3830  -81.3317   44.4834 H     1109  AIC1109     0.1192
     54 H          16.8673  -81.7512   45.1121 H     1109  AIC1109     0.1192
     55 H          12.4017  -76.9176   49.1244 H     1109  AIC1109     0.2951
     56 H          16.4271  -79.7875   42.9706 H     1109  AIC1109     0.0605
     57 H          18.3610  -79.0375   41.8223 H     1109  AIC1109     0.0621
     58 H          20.7422  -79.2675   41.3094 H     1109  AIC1109     0.0618
     59 H          22.1773  -80.6505   42.7399 H     1109  AIC1109     0.0618
     60 H          21.2236  -81.7959   44.6828 H     1109  AIC1109     0.0618
     61 H          18.8412  -81.5678   45.1976 H     1109  AIC1109     0.0621
     62 H          11.9045  -78.3085   46.2130 H     1109  AIC1109     0.0631
     63 H          14.8831  -75.6918   46.0778 H     1109  AIC1109     0.0640
     64 H          16.2644  -77.7538   46.7660 H     1109  AIC1109     0.0622
     65 H          10.6138  -76.5329   43.4324 H     1109  AIC1109     0.0244
     66 H           9.8246  -77.1802   44.8506 H     1109  AIC1109     0.0244
     67 H          11.0780  -78.0992   44.0521 H     1109  AIC1109     0.0244
     68 H          -5.3188  -71.4845   44.6618 H     1110  AIC1110     0.0244
     69 H          -5.5244  -70.0655   43.6632 H     1110  AIC1110     0.0244
     70 H          -4.3789  -70.0468   44.9824 H     1110  AIC1110     0.0244
     71 H          -1.1212  -74.0373   42.3263 H     1110  AIC1110     0.1496
     72 H           0.8241  -73.6483   42.6894 H     1110  AIC1110     0.1192
     73 H           0.6364  -74.4666   41.2508 H     1110  AIC1110     0.1192
     74 H          -6.3211  -73.6611   41.5719 H     1110  AIC1110     0.2951
     75 H           1.4451  -75.6837   43.8007 H     1110  AIC1110     0.0605
     76 H           2.2409  -77.9133   43.6907 H     1110  AIC1110     0.0621
     77 H           3.0239  -79.8230   42.3740 H     1110  AIC1110     0.0618
     78 H           2.6300  -79.8859   39.9531 H     1110  AIC1110     0.0618
     79 H           1.4447  -78.0441   38.8602 H     1110  AIC1110     0.0618
     80 H           0.6614  -76.1332   40.1754 H     1110  AIC1110     0.0621
     81 H          -3.4629  -72.1211   41.3943 H     1110  AIC1110     0.0631
     82 H          -3.8487  -73.9943   44.8613 H     1110  AIC1110     0.0640
     83 H          -2.8432  -75.9649   43.5045 H     1110  AIC1110     0.0622
     84 H          -2.6366  -69.2956   43.3669 H     1110  AIC1110     0.0244
     85 H          -3.6458  -69.4524   41.9492 H     1110  AIC1110     0.0244
     86 H          -2.1369  -70.3279   42.0486 H     1110  AIC1110     0.0244
@<TRIPOS>BOND
     1     1    14    1
     2     2     8   am
     3     2    22    1
     4     3     5    2
     5     4    14    1
     6     4    21    1
     7     5     7    1
     8     5    20    1
     9     6    11    1
    10     8    10    2
    11     8    11    1
    12     9    20    1
    13     9    21    1
    14     9    23   am
    15    11    13    1
    16    12    23    2
    17    13    15   ar
    18    13    19   ar
    19    14    20    1
    20    14    24    1
    21    15    16   ar
    22    16    17   ar
    23    17    18   ar
    24    18    19   ar
    25    21    22    1
    26    22    23    1
    27    25    38    1
    28    26    32   am
    29    26    46    1
    30    27    29    2
    31    28    38    1
    32    28    45    1
    33    29    31    1
    34    29    44    1
    35    30    35    1
    36    32    34    2
    37    32    35    1
    38    33    44    1
    39    33    45    1
    40    33    47   am
    41    35    37    1
    42    36    47    2
    43    37    39   ar
    44    37    43   ar
    45    38    44    1
    46    38    48    1
    47    39    40   ar
    48    40    41   ar
    49    41    42   ar
    50    42    43   ar
    51    45    46    1
    52    46    47    1
    53     1    49    1
    54     1    50    1
    55     1    51    1
    56     2    52    1
    57     6    53    1
    58     6    54    1
    59     7    55    1
    60    11    56    1
    61    15    57    1
    62    16    58    1
    63    17    59    1
    64    18    60    1
    65    19    61    1
    66    20    62    1
    67    21    63    1
    68    22    64    1
    69    24    65    1
    70    24    66    1
    71    24    67    1
    72    25    68    1
    73    25    69    1
    74    25    70    1
    75    26    71    1
    76    30    72    1
    77    30    73    1
    78    31    74    1
    79    35    75    1
    80    39    76    1
    81    40    77    1
    82    41    78    1
    83    42    79    1
    84    43    80    1
    85    44    81    1
    86    45    82    1
    87    46    83    1
    88    48    84    1
    89    48    85    1
    90    48    86    1
