@<TRIPOS>MOLECULE
cpf.pdb
 42 45 0 0 0
SMALL
GASTEIGER

@<TRIPOS>ATOM
      1  C1       -79.5850  114.5430  132.3500 C.ar  5001  CPF5001     0.0231
      2  N1       -80.2350  114.1760  131.2360 N.ar  5001  CPF5001    -0.3425
      3  O1       -76.9510  116.4680  133.8490 O.2   5001  CPF5001    -0.2449
      4  C2       -78.5340  115.4170  132.3870 C.ar  5001  CPF5001     0.1220
      5  N2       -80.6880  114.3400  126.3990 N.pl3 5001  CPF5001    -0.3252
      6  O2       -78.4060  115.0600  134.7150 O.3   5001  CPF5001    -0.4770
      7  C3       -77.9300  115.6670  133.7480 C.2   5001  CPF5001     0.3420
      8  N3       -82.3600  113.6970  124.1840 N.3   5001  CPF5001    -0.3130
      9  O3       -77.0970  116.8160  131.0760 O.2   5001  CPF5001    -0.2863
     10  C4       -78.0560  115.9880  131.1790 C.ar  5001  CPF5001     0.2034
     11  C5       -78.7310  115.5610  129.9630 C.ar  5001  CPF5001     0.0488
     12  C6       -78.3160  116.0320  128.7020 C.ar  5001  CPF5001    -0.0118
     13  C7       -78.9600  115.6350  127.5730 C.ar  5001  CPF5001     0.1451
     14  C8       -80.0820  114.7580  127.5810 C.ar  5001  CPF5001     0.0674
     15  C9       -80.4760  114.2860  128.8260 C.ar  5001  CPF5001    -0.0136
     16  C10      -79.8160  114.6730  130.0030 C.ar  5001  CPF5001     0.0549
     17  C11      -81.3290  113.2190  131.2770 C.3   5001  CPF5001     0.0347
     18  C12      -82.7260  113.7350  131.1560 C.3   5001  CPF5001    -0.0302
     19  C13      -82.2390  113.1850  132.4610 C.3   5001  CPF5001    -0.0302
     20  C14      -81.1040  115.3700  125.4360 C.3   5001  CPF5001     0.0248
     21  C15      -81.3420  114.7620  124.0760 C.3   5001  CPF5001     0.0117
     22  C16      -81.9410  112.6440  125.1490 C.3   5001  CPF5001     0.0117
     23  C17      -81.6780  113.2630  126.5060 C.3   5001  CPF5001     0.0248
     24  F1       -78.4770  116.0690  126.3850 F     5001  CPF5001    -0.2035
     25 H         -79.9009  114.1363  133.2443 H     5001  CPF5001     0.0819
     26 H         -79.1300  114.4779  134.5925 H     5001  CPF5001     0.2954
     27 H         -82.4950  113.2722  123.2666 H     5001  CPF5001     0.1220
     28 H         -77.5178  116.6827  128.6350 H     5001  CPF5001     0.0654
     29 H         -81.2739  113.6344  128.8876 H     5001  CPF5001     0.0658
     30 H         -80.7381  112.4872  130.7670 H     5001  CPF5001     0.0528
     31 H         -83.4491  113.1929  130.5831 H     5001  CPF5001     0.0286
     32 H         -83.1679  114.6570  130.8406 H     5001  CPF5001     0.0286
     33 H         -82.0664  113.8421  133.2877 H     5001  CPF5001     0.0286
     34 H         -82.5758  112.4255  133.1353 H     5001  CPF5001     0.0286
     35 H         -80.3358  116.1109  125.3601 H     5001  CPF5001     0.0476
     36 H         -82.0150  115.8143  125.7789 H     5001  CPF5001     0.0476
     37 H         -81.6873  115.5185  123.4026 H     5001  CPF5001     0.0439
     38 H         -80.4282  114.3457  123.7066 H     5001  CPF5001     0.0439
     39 H         -81.0478  112.1733  124.7947 H     5001  CPF5001     0.0439
     40 H         -82.7217  111.9178  125.2386 H     5001  CPF5001     0.0439
     41 H         -82.5919  113.6626  126.8933 H     5001  CPF5001     0.0476
     42 H         -81.2970  112.5080  127.1615 H     5001  CPF5001     0.0476
@<TRIPOS>BOND
     1     1     2   ar
     2     1     4   ar
     3     2    16   ar
     4     2    17    1
     5     3     7    2
     6     4    10   ar
     7     4     7    1
     8     5    20    1
     9     5    23    1
    10     5    14    1
    11     6     7    1
    12     8    21    1
    13     8    22    1
    14     9    10    2
    15    10    11   ar
    16    11    12   ar
    17    11    16   ar
    18    12    13   ar
    19    13    24    1
    20    13    14   ar
    21    14    15   ar
    22    15    16   ar
    23    17    18    1
    24    17    19    1
    25    18    19    1
    26    20    21    1
    27    22    23    1
    28     1    25    1
    29     6    26    1
    30     8    27    1
    31    12    28    1
    32    15    29    1
    33    17    30    1
    34    18    31    1
    35    18    32    1
    36    19    33    1
    37    19    34    1
    38    20    35    1
    39    20    36    1
    40    21    37    1
    41    21    38    1
    42    22    39    1
    43    22    40    1
    44    23    41    1
    45    23    42    1
