@<TRIPOS>MOLECULE
deq.pdb
 76 79 0 0 0
SMALL
GASTEIGER

@<TRIPOS>ATOM
      1  C1        -2.1670   90.0240  214.0110 C.2   4001  DEQ4001    -0.0381
      2  N1        -3.9060   88.8710  215.6450 N.ar  4001  DEQ4001    -0.3442
      3  C2        -0.8710   90.5240  213.7260 C.2   4001  DEQ4001    -0.0634
      4  N2         0.3020   85.7310  206.2170 N.pl3 4001  DEQ4001    -0.3231
      5  C3         0.1360   90.4540  214.7110 C.2   4001  DEQ4001    -0.0795
      6  N3         4.6700   86.3710  206.4440 N.pl3 4001  DEQ4001    -0.3577
      7  C4        -0.1510   89.8720  215.9650 C.3   4001  DEQ4001    -0.0055
      8  N4        -0.7410   88.6610  218.6090 N.pl3 4001  DEQ4001    -0.3576
      9  C5        -2.5050   89.4190  215.2710 C.ar  4001  DEQ4001     0.0472
     10  C6        -1.4530   89.3580  216.2730 C.ar  4001  DEQ4001     0.0005
     11  C7        -1.7110   88.7710  217.5510 C.ar  4001  DEQ4001     0.0317
     12  C8        -2.9890   88.2610  217.8530 C.ar  4001  DEQ4001    -0.0216
     13  C9        -4.0770   88.2760  216.9710 C.ar  4001  DEQ4001     0.0179
     14  C10        2.4200   86.1640  207.7160 C.ar  4001  DEQ4001     0.0164
     15  C11        0.9760   85.9400  207.6310 C.ar  4001  DEQ4001     0.0391
     16  C12        1.3390   85.7420  205.0940 C.3   4001  DEQ4001     0.0410
     17  C13        2.6900   85.9640  205.3070 C.2   4001  DEQ4001    -0.0428
     18  C14        3.2450   86.1670  206.5510 C.2   4001  DEQ4001     0.0313
     19  C15        3.0310   86.3570  208.9940 C.ar  4001  DEQ4001    -0.0511
     20  C16        2.2890   86.3550  210.1960 C.ar  4001  DEQ4001    -0.0610
     21  C17        0.9020   86.1470  210.1420 C.ar  4001  DEQ4001    -0.0600
     22  C18        0.2690   85.9520  208.8870 C.ar  4001  DEQ4001    -0.0400
     23  C19       -1.1990   85.7980  205.7130 C.3   4001  DEQ4001     0.0128
     24  C20       -1.7790   86.8360  206.8220 C.3   4001  DEQ4001    -0.0372
     25  C21       -2.8290   88.2880  206.9540 C.3   4001  DEQ4001    -0.0516
     26  C22       -3.1860   88.1720  208.4200 C.3   4001  DEQ4001    -0.0530
     27  C23       -4.6030   89.1600  209.0110 C.3   4001  DEQ4001    -0.0531
     28  C24       -4.6090   88.6440  210.6340 C.3   4001  DEQ4001    -0.0531
     29  C25       -5.0720   88.9010  211.8160 C.3   4001  DEQ4001    -0.0530
     30  C26       -5.1230   90.1710  212.4650 C.3   4001  DEQ4001    -0.0514
     31  C27       -5.0540   90.4970  213.8490 C.3   4001  DEQ4001    -0.0350
     32  C28       -5.1720   88.8930  214.7430 C.3   4001  DEQ4001     0.0235
     33  C29        0.9430   85.5420  203.6350 C.3   4001  DEQ4001    -0.0428
     34  C30       -5.3850   87.6760  217.5180 C.3   4001  DEQ4001    -0.0242
     35 H          -2.8969   90.0972  213.2851 H     4001  DEQ4001     0.0638
     36 H          -0.6657   90.9369  212.8027 H     4001  DEQ4001     0.0615
     37 H           1.0785   90.8265  214.5160 H     4001  DEQ4001     0.0575
     38 H           5.2068   86.5295  207.2539 H     4001  DEQ4001     0.1423
     39 H           5.1051   86.3516  205.5611 H     4001  DEQ4001     0.1423
     40 H           0.0594   90.6205  216.7001 H     4001  DEQ4001     0.0357
     41 H           0.4477   88.9853  215.9488 H     4001  DEQ4001     0.0357
     42 H           0.1751   88.9952  218.4736 H     4001  DEQ4001     0.1423
     43 H          -0.9937   88.2515  219.4679 H     4001  DEQ4001     0.1423
     44 H          -3.1334   87.8482  218.7878 H     4001  DEQ4001     0.0653
     45 H           0.8492   85.4521  206.0000 H     4001  DEQ4001     0.0542
     46 H           3.3161   85.9780  204.4867 H     4001  DEQ4001     0.0609
     47 H           4.0516   86.5031  209.0401 H     4001  DEQ4001     0.0625
     48 H           2.7604   86.5045  211.1018 H     4001  DEQ4001     0.0618
     49 H           0.3452   86.1359  211.0108 H     4001  DEQ4001     0.0618
     50 H          -0.7532   85.8111  208.8728 H     4001  DEQ4001     0.0636
     51 H          -1.6832   84.8450  205.7605 H     4001  DEQ4001     0.0464
     52 H          -1.3339   86.0861  204.6914 H     4001  DEQ4001     0.0464
     53 H          -0.8731   87.1942  207.2647 H     4001  DEQ4001     0.0280
     54 H          -2.5848   86.1793  207.0757 H     4001  DEQ4001     0.0280
     55 H          -3.6903   88.2218  206.3226 H     4001  DEQ4001     0.0266
     56 H          -2.3827   89.2136  206.6556 H     4001  DEQ4001     0.0266
     57 H          -2.3276   88.4692  208.9854 H     4001  DEQ4001     0.0265
     58 H          -3.4842   87.1530  208.5527 H     4001  DEQ4001     0.0265
     59 H          -5.5106   88.9070  208.5039 H     4001  DEQ4001     0.0265
     60 H          -4.5290   90.2166  208.8591 H     4001  DEQ4001     0.0265
     61 H          -3.5585   88.6441  210.8373 H     4001  DEQ4001     0.0265
     62 H          -5.4309   87.9875  210.4382 H     4001  DEQ4001     0.0265
     63 H          -4.5038   88.2783  212.4750 H     4001  DEQ4001     0.0265
     64 H          -6.1158   88.7670  211.6225 H     4001  DEQ4001     0.0265
     65 H          -6.0539   90.5901  212.1447 H     4001  DEQ4001     0.0266
     66 H          -4.1439   90.5064  212.1933 H     4001  DEQ4001     0.0266
     67 H          -5.8663   91.1375  214.1226 H     4001  DEQ4001     0.0282
     68 H          -4.1502   91.0175  214.0881 H     4001  DEQ4001     0.0282
     69 H          -6.0620   88.8525  215.3356 H     4001  DEQ4001     0.0492
     70 H          -5.2198   88.0546  214.0799 H     4001  DEQ4001     0.0492
     71 H           1.6896   85.9721  203.0006 H     4001  DEQ4001     0.0251
     72 H           0.0023   86.0180  203.4523 H     4001  DEQ4001     0.0251
     73 H           0.8592   84.4955  203.4284 H     4001  DEQ4001     0.0251
     74 H          -6.1463   87.7373  216.7686 H     4001  DEQ4001     0.0292
     75 H          -5.6930   88.2225  218.3849 H     4001  DEQ4001     0.0292
     76 H          -5.2248   86.6512  217.7807 H     4001  DEQ4001     0.0292
@<TRIPOS>BOND
     1     1     3    1
     2     1     9    2
     3     2    32    1
     4     2     9   ar
     5     2    13   ar
     6     3     5    2
     7     4    16    1
     8     4    23    1
     9     4    15    1
    10     5     7    1
    11     6    18    1
    12     7    10    1
    13     8    11    1
    14     9    10   ar
    15    10    11   ar
    16    11    12   ar
    17    12    13   ar
    18    13    34    1
    19    14    15   ar
    20    14    18    1
    21    14    19   ar
    22    15    22   ar
    23    16    17    1
    24    16    33    1
    25    17    18    2
    26    19    20   ar
    27    20    21   ar
    28    21    22   ar
    29    23    24    1
    30    24    25    1
    31    25    26    1
    32    26    27    1
    33    27    28    1
    34    28    29    1
    35    29    30    1
    36    30    31    1
    37    31    32    1
    38     1    35    1
    39     3    36    1
    40     5    37    1
    41     6    38    1
    42     6    39    1
    43     7    40    1
    44     7    41    1
    45     8    42    1
    46     8    43    1
    47    12    44    1
    48    16    45    1
    49    17    46    1
    50    19    47    1
    51    20    48    1
    52    21    49    1
    53    22    50    1
    54    23    51    1
    55    23    52    1
    56    24    53    1
    57    24    54    1
    58    25    55    1
    59    25    56    1
    60    26    57    1
    61    26    58    1
    62    27    59    1
    63    27    60    1
    64    28    61    1
    65    28    62    1
    66    29    63    1
    67    29    64    1
    68    30    65    1
    69    30    66    1
    70    31    67    1
    71    31    68    1
    72    32    69    1
    73    32    70    1
    74    33    71    1
    75    33    72    1
    76    33    73    1
    77    34    74    1
    78    34    75    1
    79    34    76    1
