@<TRIPOS>MOLECULE
dm2.pdb
 68 72 0 0 0
SMALL
GASTEIGER

@<TRIPOS>ATOM
      1  C6'      167.6970  121.2890   31.8070 C.3   2002  DM22002    -0.0361
      2  C5'      166.9450  122.3000   30.8940 C.3   2002  DM22002     0.0861
      3  O5'      166.0870  123.1080   31.7270 O.3   2002  DM22002    -0.3457
      4  C4'      166.0530  121.9160   29.6440 C.3   2002  DM22002     0.0963
      5  O4'      166.5620  120.8060   28.8770 O.3   2002  DM22002    -0.3877
      6  C3'      165.7060  123.2010   28.7940 C.3   2002  DM22002     0.0382
      7  N3'      165.0800  123.0890   27.4600 N.3   2002  DM22002    -0.3249
      8  C2'      164.8110  124.0550   29.6770 C.3   2002  DM22002     0.0161
      9  C1'      165.4490  124.2910   31.0860 C.3   2002  DM22002     0.1618
     10  C1       159.2210  129.3040   27.5550 C.ar  2002  DM22002    -0.0500
     11  C2       158.2630  128.5170   27.6290 C.ar  2002  DM22002    -0.0576
     12  C3       158.0860  127.3990   27.8650 C.ar  2002  DM22002    -0.0192
     13  C4       158.7370  126.4900   28.3940 C.ar  2002  DM22002     0.1316
     14  O4       158.5080  125.0480   28.2190 O.3   2002  DM22002    -0.4944
     15  C5       160.0500  127.1590   28.8870 C.ar  2002  DM22002     0.0748
     16  C6       161.1490  126.5330   29.6880 C.2   2002  DM22002     0.2016
     17  O6       160.9750  125.3450   30.0920 O.2   2002  DM22002    -0.2864
     18  C7       162.3350  127.2430   30.0020 C.ar  2002  DM22002     0.0784
     19  C8       163.2550  126.5690   30.7580 C.ar  2002  DM22002     0.1345
     20  O8       162.8590  125.2720   31.1110 O.3   2002  DM22002    -0.5057
     21  C9       164.5900  127.2550   31.1140 C.ar  2002  DM22002     0.0302
     22  C10      165.7410  126.6620   31.8940 C.3   2002  DM22002     0.0934
     23  O10      166.2590  125.5310   31.1280 O.3   2002  DM22002    -0.3432
     24  C11      166.9380  127.6560   32.1970 C.3   2002  DM22002     0.0141
     25  C12      167.2950  128.7090   31.0940 C.3   2002  DM22002     0.1325
     26  O12      167.7820  128.0190   29.9100 O.3   2002  DM22002    -0.3806
     27  C13      168.2590  129.7880   31.5470 C.2   2002  DM22002     0.1900
     28  O13      167.7350  130.8620   31.9640 O.2   2002  DM22002    -0.2919
     29  C14      169.7620  129.3920   31.4100 C.3   2002  DM22002     0.1051
     30  O14      170.7920  130.4200   31.4850 O.3   2002  DM22002    -0.3874
     31  C15      166.0600  129.5570   30.8420 C.3   2002  DM22002     0.0123
     32  C16      164.8590  128.6340   30.6320 C.ar  2002  DM22002     0.0070
     33  C17      163.9170  129.2200   29.9340 C.ar  2002  DM22002     0.1322
     34  O17      164.4650  130.4800   29.6950 O.3   2002  DM22002    -0.5057
     35  C18      162.6540  128.5490   29.6040 C.ar  2002  DM22002     0.0782
     36  C19      161.6700  129.1970   28.8270 C.2   2002  DM22002     0.1982
     37  O19      161.9740  130.3550   28.4700 O.2   2002  DM22002    -0.2865
     38  C20      160.3160  128.5900   28.4050 C.ar  2002  DM22002     0.0367
     39  C21      157.8610  124.5570   27.0440 C.3   2002  DM22002     0.0788
     40 H         168.2207  121.8215   32.5732 H     2002  DM22002     0.0255
     41 H         168.3955  120.7297   31.2203 H     2002  DM22002     0.0255
     42 H         166.9920  120.6205   32.2553 H     2002  DM22002     0.0255
     43 H         167.8043  122.7234   30.4174 H     2002  DM22002     0.0620
     44 H         165.1256  121.5346   30.0173 H     2002  DM22002     0.0635
     45 H         167.4164  121.0476   28.4864 H     2002  DM22002     0.2100
     46 H         166.6648  123.5972   28.5321 H     2002  DM22002     0.0486
     47 H         164.1362  122.7146   27.5577 H     2002  DM22002     0.1186
     48 H         165.6349  122.4639   26.8754 H     2002  DM22002     0.1186
     49 H         163.8704  123.5600   29.8001 H     2002  DM22002     0.0330
     50 H         164.6830  125.0061   29.2038 H     2002  DM22002     0.0330
     51 H         164.6142  124.4505   31.7360 H     2002  DM22002     0.0910
     52 H         159.2780  130.2054   27.0557 H     2002  DM22002     0.0625
     53 H         157.3732  128.9966   27.4210 H     2002  DM22002     0.0619
     54 H         157.1535  127.0806   27.5581 H     2002  DM22002     0.0654
     55 H         162.0215  124.9485   30.8428 H     2002  DM22002     0.2922
     56 H         165.3488  126.3858   32.8504 H     2002  DM22002     0.0649
     57 H         167.8118  127.0633   32.3701 H     2002  DM22002     0.0326
     58 H         166.6080  128.2360   33.0334 H     2002  DM22002     0.0326
     59 H         168.5678  127.4986   30.1393 H     2002  DM22002     0.2108
     60 H         169.8708  128.9134   30.4592 H     2002  DM22002     0.0637
     61 H         169.9419  128.7969   32.2809 H     2002  DM22002     0.0637
     62 H         170.7086  131.0173   30.7253 H     2002  DM22002     0.2100
     63 H         166.2086  130.1572   29.9687 H     2002  DM22002     0.0347
     64 H         165.8827  130.1970   31.6809 H     2002  DM22002     0.0347
     65 H         165.3205  130.6874   30.0160 H     2002  DM22002     0.2922
     66 H         157.7851  123.4910   27.0977 H     2002  DM22002     0.0660
     67 H         158.4320  124.8309   26.1815 H     2002  DM22002     0.0660
     68 H         156.8813  124.9812   26.9726 H     2002  DM22002     0.0660
@<TRIPOS>BOND
     1     1     2    1
     2     2     3    1
     3     2     4    1
     4     3     9    1
     5     4     5    1
     6     4     6    1
     7     6     7    1
     8     6     8    1
     9     8     9    1
    10     9    23    1
    11    10    11   ar
    12    10    38   ar
    13    11    12   ar
    14    12    13   ar
    15    13    14    1
    16    13    15   ar
    17    14    39    1
    18    15    16    1
    19    15    38   ar
    20    16    17    2
    21    16    18    1
    22    18    19   ar
    23    18    35   ar
    24    19    20    1
    25    19    21   ar
    26    21    22    1
    27    21    32   ar
    28    22    23    1
    29    22    24    1
    30    24    25    1
    31    25    26    1
    32    25    27    1
    33    25    31    1
    34    27    28    2
    35    27    29    1
    36    29    30    1
    37    31    32    1
    38    32    33   ar
    39    33    34    1
    40    33    35   ar
    41    35    36    1
    42    36    37    2
    43    36    38    1
    44     1    40    1
    45     1    41    1
    46     1    42    1
    47     2    43    1
    48     4    44    1
    49     5    45    1
    50     6    46    1
    51     7    47    1
    52     7    48    1
    53     8    49    1
    54     8    50    1
    55     9    51    1
    56    10    52    1
    57    11    53    1
    58    12    54    1
    59    20    55    1
    60    22    56    1
    61    24    57    1
    62    24    58    1
    63    26    59    1
    64    29    60    1
    65    29    61    1
    66    30    62    1
    67    31    63    1
    68    31    64    1
    69    34    65    1
    70    39    66    1
    71    39    67    1
    72    39    68    1
