@<TRIPOS>MOLECULE
dxc.pdb
 68 71 0 0 0
SMALL
GASTEIGER

@<TRIPOS>ATOM
      1  C1       -62.6200    3.1830  -60.1740 C.3   2034  DXC2034     0.0555
      2  O1       -64.5760   -0.5920  -64.2010 O.3   2034  DXC2034    -0.3912
      3  C2       -61.6980    1.9590  -60.1460 C.3   2034  DXC2034    -0.0235
      4  O2       -63.5710    3.1170  -59.1040 O.3   2034  DXC2034    -0.3918
      5  C3       -60.7030    1.9240  -61.3270 C.3   2034  DXC2034    -0.0330
      6  O3       -64.4880   -5.7350  -70.2070 O.2   2034  DXC2034    -0.2510
      7  C4       -61.3540    2.0800  -62.7280 C.3   2034  DXC2034    -0.0259
      8  O4       -65.8740   -5.5540  -68.5280 O.3   2034  DXC2034    -0.4806
      9  C5       -62.4100    3.2030  -62.7150 C.3   2034  DXC2034    -0.0448
     10  C6       -63.3610    3.2250  -61.5090 C.3   2034  DXC2034    -0.0263
     11  C7       -59.7860    0.6930  -61.1980 C.3   2034  DXC2034    -0.0494
     12  C8       -60.4300   -0.6100  -61.6830 C.3   2034  DXC2034    -0.0494
     13  C9       -61.0720   -0.5080  -63.0760 C.3   2034  DXC2034    -0.0342
     14  C10      -61.9780    0.7380  -63.2090 C.3   2034  DXC2034    -0.0299
     15  C11      -61.9170   -1.7620  -63.4280 C.3   2034  DXC2034    -0.0299
     16  C12      -62.5130   -1.7220  -64.8530 C.3   2034  DXC2034     0.0000
     17  C13      -63.3890   -0.4740  -64.9970 C.3   2034  DXC2034     0.0614
     18  C14      -62.6350    0.8080  -64.6060 C.3   2034  DXC2034    -0.0227
     19  C15      -61.3430   -3.2220  -63.1130 C.3   2034  DXC2034    -0.0491
     20  C16      -62.1420   -4.1630  -64.4800 C.3   2034  DXC2034    -0.0491
     21  C17      -63.2480   -3.0830  -64.8690 C.3   2034  DXC2034    -0.0304
     22  C18      -60.2770    2.5560  -63.7170 C.3   2034  DXC2034    -0.0590
     23  C19      -64.1700   -3.4110  -66.0860 C.3   2034  DXC2034    -0.0400
     24  C20      -61.4240   -1.6690  -65.9470 C.3   2034  DXC2034    -0.0567
     25  C21      -63.6190   -4.4480  -67.0790 C.3   2034  DXC2034    -0.0401
     26  C22      -63.9840   -4.1130  -68.5260 C.3   2034  DXC2034     0.0450
     27  C23      -64.8370   -5.2100  -69.1280 C.2   2034  DXC2034     0.3047
     28  C24      -65.5650   -3.8210  -65.5870 C.3   2034  DXC2034    -0.0621
     29 H         -62.0283    4.0667  -60.0560 H     2034  DXC2034     0.0593
     30 H         -65.0516   -1.4006  -64.4476 H     2034  DXC2034     0.2098
     31 H         -62.3020    1.0765  -60.1831 H     2034  DXC2034     0.0293
     32 H         -61.1230    2.0127  -59.2453 H     2034  DXC2034     0.0293
     33 H         -64.1130    2.3185  -59.2019 H     2034  DXC2034     0.2098
     34 H         -60.0952    2.8018  -61.2569 H     2034  DXC2034     0.0307
     35 H         -66.1072   -5.1400  -67.7204 H     2034  DXC2034     0.2951
     36 H         -63.0052    3.1018  -63.5984 H     2034  DXC2034     0.0271
     37 H         -61.8560    4.1167  -62.6598 H     2034  DXC2034     0.0271
     38 H         -63.9440    4.1213  -61.5490 H     2034  DXC2034     0.0290
     39 H         -63.9754    2.3508  -61.5656 H     2034  DXC2034     0.0290
     40 H         -59.5213    0.5757  -60.1679 H     2034  DXC2034     0.0268
     41 H         -58.9347    0.8713  -61.8212 H     2034  DXC2034     0.0268
     42 H         -61.1883   -0.8918  -60.9826 H     2034  DXC2034     0.0268
     43 H         -59.6465   -1.3351  -61.7550 H     2034  DXC2034     0.0268
     44 H         -60.2520   -0.4295  -63.7589 H     2034  DXC2034     0.0306
     45 H         -62.7639    0.5955  -62.4970 H     2034  DXC2034     0.0310
     46 H         -62.6827   -1.6453  -62.6898 H     2034  DXC2034     0.0310
     47 H         -63.6573   -0.4014  -66.0303 H     2034  DXC2034     0.0599
     48 H         -61.8687    0.9843  -65.3317 H     2034  DXC2034     0.0293
     49 H         -63.3555    1.5984  -64.5745 H     2034  DXC2034     0.0293
     50 H         -61.6531   -3.5741  -62.1514 H     2034  DXC2034     0.0268
     51 H         -60.2761   -3.2935  -63.0733 H     2034  DXC2034     0.0268
     52 H         -61.4664   -4.3607  -65.2859 H     2034  DXC2034     0.0268
     53 H         -62.5032   -5.1392  -64.2320 H     2034  DXC2034     0.0268
     54 H         -64.0404   -3.0724  -64.1501 H     2034  DXC2034     0.0310
     55 H         -59.8587    3.4784  -63.3720 H     2034  DXC2034     0.0235
     56 H         -60.7177    2.7026  -64.6809 H     2034  DXC2034     0.0235
     57 H         -59.5052    1.8181  -63.7862 H     2034  DXC2034     0.0235
     58 H         -64.2211   -2.5054  -66.6536 H     2034  DXC2034     0.0301
     59 H         -60.9318   -0.7195  -65.9146 H     2034  DXC2034     0.0236
     60 H         -61.8763   -1.8037  -66.9073 H     2034  DXC2034     0.0236
     61 H         -60.7095   -2.4471  -65.7770 H     2034  DXC2034     0.0236
     62 H         -64.0238   -5.4079  -66.8349 H     2034  DXC2034     0.0273
     63 H         -62.5519   -4.4439  -67.0000 H     2034  DXC2034     0.0273
     64 H         -63.0870   -4.0099  -69.1001 H     2034  DXC2034     0.0378
     65 H         -64.5388   -3.1982  -68.5390 H     2034  DXC2034     0.0378
     66 H         -65.4900   -4.7272  -65.0230 H     2034  DXC2034     0.0233
     67 H         -66.2125   -3.9749  -66.4248 H     2034  DXC2034     0.0233
     68 H         -65.9635   -3.0463  -64.9658 H     2034  DXC2034     0.0233
@<TRIPOS>BOND
     1     1     3    1
     2     1     4    1
     3     1    10    1
     4     2    17    1
     5     3     5    1
     6     5     7    1
     7     5    11    1
     8     6    27    2
     9     7     9    1
    10     7    14    1
    11     7    22    1
    12     8    27    1
    13     9    10    1
    14    11    12    1
    15    12    13    1
    16    13    14    1
    17    13    15    1
    18    14    18    1
    19    15    16    1
    20    15    19    1
    21    16    17    1
    22    16    21    1
    23    16    24    1
    24    17    18    1
    25    20    21    1
    26    21    23    1
    27    23    25    1
    28    23    28    1
    29    25    26    1
    30    26    27    1
    31    20    19    1
    32     1    29    1
    33     2    30    1
    34     3    31    1
    35     3    32    1
    36     4    33    1
    37     5    34    1
    38     8    35    1
    39     9    36    1
    40     9    37    1
    41    10    38    1
    42    10    39    1
    43    11    40    1
    44    11    41    1
    45    12    42    1
    46    12    43    1
    47    13    44    1
    48    14    45    1
    49    15    46    1
    50    17    47    1
    51    18    48    1
    52    18    49    1
    53    19    50    1
    54    19    51    1
    55    20    52    1
    56    20    53    1
    57    21    54    1
    58    22    55    1
    59    22    56    1
    60    22    57    1
    61    23    58    1
    62    24    59    1
    63    24    60    1
    64    24    61    1
    65    25    62    1
    66    25    63    1
    67    26    64    1
    68    26    65    1
    69    28    66    1
    70    28    67    1
    71    28    68    1
