@<TRIPOS>MOLECULE
dxt.pdb
 58 61 0 0 0
SMALL
GASTEIGER

@<TRIPOS>ATOM
      1  C1         7.4630   20.5040    5.5760 C.2   902  DXT902      0.1868
      2  O1         6.8520   19.6060    6.1330 O.2   902  DXT902     -0.2930
      3  C2         7.1600   20.8710    4.1980 C.3   902  DXT902      0.1239
      4  C3         7.9090   21.7630    3.5540 C.3   902  DXT902      0.0891
      5  O3         7.3720   22.3420    2.4820 O.3   902  DXT902     -0.3890
      6  C4         9.3070   22.1370    4.0020 C.3   902  DXT902      0.0455
      7  C4A        9.7040   21.4480    5.3190 C.3   902  DXT902      0.0465
      8  C4B        8.5450   21.2680    6.2870 C.3   902  DXT902      0.1878
      9  N4         9.4440   23.6110    4.0740 N.3   902  DXT902     -0.3025
     10  C5        10.3970   20.1180    5.0510 C.3   902  DXT902      0.0706
     11  C5A       11.0050   19.5360    6.3330 C.3   902  DXT902      0.0240
     12  C5B       10.0880   19.7350    7.5250 C.2   902  DXT902      0.0465
     13  O5        11.4050   20.3930    4.0710 O.3   902  DXT902     -0.3907
     14  C6        11.4010   18.0510    6.2480 C.3   902  DXT902     -0.0085
     15  C6A       12.1290   17.6840    7.4870 C.ar  902  DXT902     -0.0296
     16  C6B       11.6220   18.1790    8.7800 C.ar  902  DXT902      0.0668
     17  C7        13.2700   16.8890    7.4760 C.ar  902  DXT902     -0.0574
     18  C8        13.9220   16.5640    8.6660 C.ar  902  DXT902     -0.0580
     19  C9        13.4820   17.0150    9.9120 C.ar  902  DXT902     -0.0194
     20  C10       12.3500   17.8160   10.0200 C.ar  902  DXT902      0.1279
     21  O10       11.9200   18.2540   11.2350 O.3   902  DXT902     -0.5060
     22  C11       10.4030   19.0390    8.7700 C.2   902  DXT902      0.1966
     23  O11        9.7170   19.1730    9.7700 O.2   902  DXT902     -0.2867
     24  C12        9.0100   20.5240    7.5140 C.2   902  DXT902      0.1404
     25  O12        8.3230   20.6740    8.6430 O.2   902  DXT902     -0.5073
     26  O13        8.0410   22.5530    6.6740 O.3   902  DXT902     -0.3733
     27  C21        6.0290   20.2680    3.4980 C.2   902  DXT902      0.2234
     28  N21        5.6950   19.0090    3.7760 N.am  902  DXT902     -0.3287
     29  O21        5.4300   20.9260    2.6600 O.2   902  DXT902     -0.2752
     30  C41        9.8530   24.1340    2.7610 C.3   902  DXT902     -0.0127
     31  C42       10.4520   24.0320    5.0600 C.3   902  DXT902     -0.0127
     32  C61       12.2880   17.7020    5.0570 C.3   902  DXT902     -0.0577
     33 H           7.3743   20.5609    5.1994 H     902  DXT902      0.0500
     34 H           8.8070   21.5235    4.0842 H     902  DXT902      0.0621
     35 H           6.4068   22.2514    2.5150 H     902  DXT902      0.2099
     36 H           9.9968   21.7757    3.2681 H     902  DXT902      0.0493
     37 H          10.3927   22.1102    5.8008 H     902  DXT902      0.0379
     38 H           9.7044   19.3822    4.6992 H     902  DXT902      0.0604
     39 H          11.9116   20.0896    6.4615 H     902  DXT902      0.0382
     40 H          12.0174   21.0616    4.4158 H     902  DXT902      0.2098
     41 H          10.4893   17.5045    6.1251 H     902  DXT902      0.0353
     42 H          13.6381   16.5360    6.5788 H     902  DXT902      0.0621
     43 H          14.7626   15.9668    8.6235 H     902  DXT902      0.0619
     44 H          14.0028   16.7509   10.7629 H     902  DXT902      0.0654
     45 H          11.1560   18.7931   11.2951 H     902  DXT902      0.2922
     46 H           7.5634   21.2223    8.6599 H     902  DXT902      0.2918
     47 H           7.7413   23.0334    5.8864 H     902  DXT902      0.2113
     48 H           6.1973   18.5053    4.4566 H     902  DXT902      0.1449
     49 H           4.9459   18.5821    3.3009 H     902  DXT902      0.1449
     50 H           9.1363   23.8425    2.0219 H     902  DXT902      0.0391
     51 H          10.8129   23.7381    2.5026 H     902  DXT902      0.0391
     52 H           9.9073   25.2018    2.8035 H     902  DXT902      0.0391
     53 H          10.1798   23.6647    6.0274 H     902  DXT902      0.0391
     54 H          10.5017   25.1005    5.0852 H     902  DXT902      0.0391
     55 H          11.4074   23.6369    4.7843 H     902  DXT902      0.0391
     56 H          13.2162   18.2282    5.1373 H     902  DXT902      0.0236
     57 H          11.7951   17.9845    4.1503 H     902  DXT902      0.0236
     58 H          12.4749   16.6485    5.0481 H     902  DXT902      0.0236
@<TRIPOS>BOND
     1     1     2    2
     2     1     3    1
     3     1     8    1
     4     3     4    1
     5     3    27    1
     6     4     5    1
     7     4     6    1
     8     6     7    1
     9     6     9    1
    10     7     8    1
    11     7    10    1
    12     8    24    1
    13     8    26    1
    14     9    30    1
    15     9    31    1
    16    10    11    1
    17    10    13    1
    18    11    12    1
    19    11    14    1
    20    12    22    1
    21    12    24    2
    22    14    15    1
    23    14    32    1
    24    15    16   ar
    25    15    17   ar
    26    16    20   ar
    27    16    22    1
    28    17    18   ar
    29    18    19   ar
    30    19    20   ar
    31    20    21    1
    32    22    23    2
    33    24    25    1
    34    27    28   am
    35    27    29    2
    36     3    33    1
    37     4    34    1
    38     5    35    1
    39     6    36    1
    40     7    37    1
    41    10    38    1
    42    11    39    1
    43    13    40    1
    44    14    41    1
    45    17    42    1
    46    18    43    1
    47    19    44    1
    48    21    45    1
    49    25    46    1
    50    26    47    1
    51    28    48    1
    52    28    49    1
    53    30    50    1
    54    30    51    1
    55    30    52    1
    56    31    53    1
    57    31    54    1
    58    31    55    1
    59    32    56    1
    60    32    57    1
    61    32    58    1
