@<TRIPOS>MOLECULE
ery.pdb
 118 120 0 0 0
SMALL
GASTEIGER

@<TRIPOS>ATOM
      1  C1        31.6020  -19.2390   17.7250 C.2   3402  ERY3402     0.3128
      2  N1        40.4180  -22.4430   21.4640 N.3   3402  ERY3402    -0.3027
      3  O1        31.0330  -18.2800   18.2230 O.2   3402  ERY3402    -0.2504
      4  C2        32.2100  -20.3140   18.5780 C.3   3402  ERY3402     0.0801
      5  O2        31.6190  -19.3840   16.2780 O.3   3402  ERY3402    -0.4581
      6  C3        33.3710  -19.7650   19.4020 C.3   3402  ERY3402     0.0793
      7  O3        33.4200  -20.4590   20.6470 O.3   3402  ERY3402    -0.3468
      8  C4        34.7050  -19.9420   18.6840 C.3   3402  ERY3402     0.0124
      9  O4        33.1420  -18.8350   22.3540 O.3   3402  ERY3402    -0.3456
     10  C5        35.7800  -19.0300   19.2680 C.3   3402  ERY3402     0.0951
     11  O5        34.4090  -22.1350   22.7760 O.3   3402  ERY3402    -0.3740
     12  C6        35.8610  -17.7110   18.5040 C.3   3402  ERY3402     0.0903
     13  O6        35.4750  -20.6250   24.5990 O.3   3402  ERY3402    -0.3864
     14  C7        36.2780  -17.9440   17.0540 C.3   3402  ERY3402    -0.0125
     15  O7        37.0250  -19.7240   19.1910 O.3   3402  ERY3402    -0.3423
     16  C8        36.6700  -16.6440   16.3600 C.3   3402  ERY3402     0.0177
     17  O8        37.9100  -22.5290   19.8790 O.3   3402  ERY3402    -0.3852
     18  C9        35.4450  -15.9600   15.8220 C.2   3402  ERY3402     0.1416
     19  O9        38.2880  -18.9740   20.9320 O.3   3402  ERY3402    -0.3457
     20  C10       34.5340  -16.7010   14.8860 C.3   3402  ERY3402     0.0437
     21  O10       34.5240  -17.1960   18.5320 O.3   3402  ERY3402    -0.3863
     22  C11       33.1820  -16.9480   15.5480 C.3   3402  ERY3402     0.0963
     23  O11       35.2190  -14.7920   16.1040 O.2   3402  ERY3402    -0.2967
     24  C12       32.1550  -17.6640   14.6770 C.3   3402  ERY3402     0.1262
     25  O12       32.4640  -15.7710   15.9350 O.3   3402  ERY3402    -0.3881
     26  C13       31.0930  -18.2380   15.6100 C.3   3402  ERY3402     0.1335
     27  O13       31.4890  -16.7100   13.8390 O.3   3402  ERY3402    -0.3826
     28  C14       32.5360  -19.9430   21.6640 C.3   3402  ERY3402     0.1627
     29  C15       32.1980  -21.0340   22.6820 C.3   3402  ERY3402     0.0298
     30  C16       33.4100  -21.4220   23.5400 C.3   3402  ERY3402     0.0991
     31  C17       34.1720  -20.2200   24.1140 C.3   3402  ERY3402     0.1098
     32  C18       34.3900  -19.1450   23.0340 C.3   3402  ERY3402     0.0874
     33  C19       32.8860  -22.2860   24.6750 C.3   3402  ERY3402    -0.0331
     34  C20       34.3350  -23.5090   22.3510 C.3   3402  ERY3402     0.0373
     35  C21       35.0650  -17.8890   23.6070 C.3   3402  ERY3402    -0.0361
     36  C22       37.5710  -20.1220   20.4520 C.3   3402  ERY3402     0.1871
     37  C23       38.5390  -21.3240   20.3490 C.3   3402  ERY3402     0.1214
     38  C24       39.2340  -21.5940   21.7030 C.3   3402  ERY3402     0.0429
     39  C25       39.7420  -20.3020   22.3940 C.3   3402  ERY3402    -0.0085
     40  C26       38.7400  -19.1360   22.2880 C.3   3402  ERY3402     0.0605
     41  C27       39.2800  -17.7930   22.7890 C.3   3402  ERY3402    -0.0385
     42  C28       40.7600  -23.4530   22.4410 C.3   3402  ERY3402    -0.0127
     43  C29       41.3080  -22.3150   20.3060 C.3   3402  ERY3402    -0.0127
     44  C30       31.0770  -20.8980   19.4220 C.3   3402  ERY3402    -0.0499
     45  C31       35.1370  -21.3990   18.8100 C.3   3402  ERY3402    -0.0576
     46  C32       36.7220  -16.6510   19.2140 C.3   3402  ERY3402    -0.0336
     47  C33       37.6280  -17.0860   15.2590 C.3   3402  ERY3402    -0.0556
     48  C34       34.3910  -15.8840   13.6120 C.3   3402  ERY3402    -0.0532
     49  C35       32.8300  -18.7270   13.7920 C.3   3402  ERY3402    -0.0301
     50  C36       29.7970  -18.6150   14.8700 C.3   3402  ERY3402    -0.0157
     51  C37       28.8040  -19.3670   15.7450 C.3   3402  ERY3402    -0.0618
     52 H          32.6435  -21.0948   17.9887 H     3402  ERY3402     0.0436
     53 H          33.2099  -18.7179   19.5519 H     3402  ERY3402     0.0608
     54 H          34.5806  -19.6763   17.6550 H     3402  ERY3402     0.0349
     55 H          35.5408  -18.7919   20.2834 H     3402  ERY3402     0.0629
     56 H          35.3685  -21.3043   25.2832 H     3402  ERY3402     0.2100
     57 H          35.4593  -18.3854   16.5251 H     3402  ERY3402     0.0300
     58 H          37.1305  -18.5906   17.0536 H     3402  ERY3402     0.0300
     59 H          37.1315  -15.9298   17.0095 H     3402  ERY3402     0.0376
     60 H          37.4749  -22.3564   19.0294 H     3402  ERY3402     0.2101
     61 H          34.9458  -17.6586   14.6444 H     3402  ERY3402     0.0401
     62 H          33.9266  -17.8235   18.0958 H     3402  ERY3402     0.2103
     63 H          33.5096  -17.5321   16.3825 H     3402  ERY3402     0.0630
     64 H          32.1926  -15.2825   15.1422 H     3402  ERY3402     0.2099
     65 H          30.8405  -17.4762   16.3177 H     3402  ERY3402     0.0764
     66 H          31.0614  -16.0371   14.3916 H     3402  ERY3402     0.2104
     67 H          31.6412  -19.6119   21.1796 H     3402  ERY3402     0.0911
     68 H          31.8558  -21.9012   22.1569 H     3402  ERY3402     0.0343
     69 H          31.4422  -20.6508   23.3353 H     3402  ERY3402     0.0343
     70 H          33.5826  -19.8256   24.9153 H     3402  ERY3402     0.0648
     71 H          35.0634  -19.5441   22.3045 H     3402  ERY3402     0.0621
     72 H          32.3555  -23.1227   24.2707 H     3402  ERY3402     0.0258
     73 H          32.2265  -21.7080   25.2881 H     3402  ERY3402     0.0258
     74 H          33.7070  -22.6357   25.2654 H     3402  ERY3402     0.0258
     75 H          35.2188  -23.7609   21.8030 H     3402  ERY3402     0.0524
     76 H          33.4772  -23.6432   21.7257 H     3402  ERY3402     0.0524
     77 H          34.2540  -24.1437   23.2086 H     3402  ERY3402     0.0524
     78 H          34.4292  -17.4482   24.3462 H     3402  ERY3402     0.0255
     79 H          35.2370  -17.1857   22.8192 H     3402  ERY3402     0.0255
     80 H          35.9987  -18.1586   24.0546 H     3402  ERY3402     0.0255
     81 H          36.7833  -20.4404   21.1024 H     3402  ERY3402     0.0937
     82 H          39.2680  -21.0443   19.6174 H     3402  ERY3402     0.0660
     83 H          38.5066  -22.0570   22.3366 H     3402  ERY3402     0.0490
     84 H          40.6611  -20.0062   21.9329 H     3402  ERY3402     0.0306
     85 H          39.8726  -20.5218   23.4330 H     3402  ERY3402     0.0306
     86 H          37.9300  -19.4098   22.9313 H     3402  ERY3402     0.0595
     87 H          40.0953  -17.4828   22.1693 H     3402  ERY3402     0.0255
     88 H          39.6194  -17.8991   23.7982 H     3402  ERY3402     0.0255
     89 H          38.5026  -17.0589   22.7495 H     3402  ERY3402     0.0255
     90 H          41.6364  -23.9767   22.1208 H     3402  ERY3402     0.0391
     91 H          39.9483  -24.1431   22.5397 H     3402  ERY3402     0.0391
     92 H          40.9483  -22.9865   23.3853 H     3402  ERY3402     0.0391
     93 H          42.0858  -23.0469   20.3713 H     3402  ERY3402     0.0391
     94 H          41.7395  -21.3360   20.2943 H     3402  ERY3402     0.0391
     95 H          40.7482  -22.4688   19.4072 H     3402  ERY3402     0.0391
     96 H          30.6378  -20.1230   20.0148 H     3402  ERY3402     0.0238
     97 H          31.4667  -21.6604   20.0637 H     3402  ERY3402     0.0238
     98 H          30.3334  -21.3194   18.7783 H     3402  ERY3402     0.0238
     99 H          35.2566  -21.6474   19.8439 H     3402  ERY3402     0.0234
    100 H          36.0665  -21.5409   18.2993 H     3402  ERY3402     0.0234
    101 H          34.3911  -22.0311   18.3753 H     3402  ERY3402     0.0234
    102 H          37.7424  -16.9726   19.2300 H     3402  ERY3402     0.0258
    103 H          36.3731  -16.5216   20.2172 H     3402  ERY3402     0.0258
    104 H          36.6491  -15.7218   18.6884 H     3402  ERY3402     0.0258
    105 H          37.1404  -17.7982   14.6267 H     3402  ERY3402     0.0236
    106 H          38.4945  -17.5339   15.6988 H     3402  ERY3402     0.0236
    107 H          37.9213  -16.2360   14.6790 H     3402  ERY3402     0.0236
    108 H          33.9794  -14.9249   13.8477 H     3402  ERY3402     0.0237
    109 H          33.7407  -16.3940   12.9324 H     3402  ERY3402     0.0237
    110 H          35.3523  -15.7581   13.1592 H     3402  ERY3402     0.0237
    111 H          33.3291  -19.4424   14.4117 H     3402  ERY3402     0.0259
    112 H          33.5420  -18.2549   13.1477 H     3402  ERY3402     0.0259
    113 H          32.0882  -19.2227   13.2013 H     3402  ERY3402     0.0259
    114 H          30.0502  -19.2333   14.0342 H     3402  ERY3402     0.0299
    115 H          29.3268  -17.7028   14.5672 H     3402  ERY3402     0.0299
    116 H          29.2404  -20.2888   16.0685 H     3402  ERY3402     0.0231
    117 H          27.9163  -19.5704   15.1833 H     3402  ERY3402     0.0231
    118 H          28.5573  -18.7704   16.5983 H     3402  ERY3402     0.0231
@<TRIPOS>BOND
     1     1     3    2
     2     1     4    1
     3     1     5    1
     4     2    42    1
     5     2    43    1
     6     2    38    1
     7     4     6    1
     8     4    44    1
     9     5    26    1
    10     6     7    1
    11     6     8    1
    12     7    28    1
    13     8    10    1
    14     8    45    1
    15     9    28    1
    16     9    32    1
    17    10    12    1
    18    10    15    1
    19    11    34    1
    20    11    30    1
    21    12    14    1
    22    12    21    1
    23    12    46    1
    24    13    31    1
    25    14    16    1
    26    15    36    1
    27    16    18    1
    28    16    47    1
    29    17    37    1
    30    18    23    2
    31    18    20    1
    32    19    36    1
    33    19    40    1
    34    20    22    1
    35    20    48    1
    36    22    24    1
    37    22    25    1
    38    24    26    1
    39    24    27    1
    40    24    49    1
    41    26    50    1
    42    28    29    1
    43    29    30    1
    44    30    31    1
    45    30    33    1
    46    31    32    1
    47    32    35    1
    48    36    37    1
    49    37    38    1
    50    38    39    1
    51    39    40    1
    52    40    41    1
    53    50    51    1
    54     4    52    1
    55     6    53    1
    56     8    54    1
    57    10    55    1
    58    13    56    1
    59    14    57    1
    60    14    58    1
    61    16    59    1
    62    17    60    1
    63    20    61    1
    64    21    62    1
    65    22    63    1
    66    25    64    1
    67    26    65    1
    68    27    66    1
    69    28    67    1
    70    29    68    1
    71    29    69    1
    72    31    70    1
    73    32    71    1
    74    33    72    1
    75    33    73    1
    76    33    74    1
    77    34    75    1
    78    34    76    1
    79    34    77    1
    80    35    78    1
    81    35    79    1
    82    35    80    1
    83    36    81    1
    84    37    82    1
    85    38    83    1
    86    39    84    1
    87    39    85    1
    88    40    86    1
    89    41    87    1
    90    41    88    1
    91    41    89    1
    92    42    90    1
    93    42    91    1
    94    42    92    1
    95    43    93    1
    96    43    94    1
    97    43    95    1
    98    44    96    1
    99    44    97    1
   100    44    98    1
   101    45    99    1
   102    45   100    1
   103    45   101    1
   104    46   102    1
   105    46   103    1
   106    46   104    1
   107    47   105    1
   108    47   106    1
   109    47   107    1
   110    48   108    1
   111    48   109    1
   112    48   110    1
   113    49   111    1
   114    49   112    1
   115    49   113    1
   116    50   114    1
   117    50   115    1
   118    51   116    1
   119    51   117    1
   120    51   118    1
