@<TRIPOS>MOLECULE
et.pdb
 45 48 0 0 0
SMALL
GASTEIGER

@<TRIPOS>ATOM
      1  C1         2.6430    5.0870  131.4030 C.ar  3001  ET3001     -0.0542
      2  C2         3.6060    5.4390  130.4510 C.ar  3001  ET3001     -0.0406
      3  C3         3.2380    5.7650  129.1030 C.ar  3001  ET3001      0.0263
      4  C4         1.8430    5.7430  128.7350 C.ar  3001  ET3001     -0.0194
      5  N5        -0.6190    5.3130  129.3530 N.pl3 3001  ET3001     -0.2993
      6  C6        -1.7340    4.9000  130.4110 C.2   3001  ET3001      0.0453
      7  C7        -2.2750    4.2270  132.6760 C.2   3001  ET3001     -0.0352
      8  C8        -1.9710    3.8970  134.0140 C.2   3001  ET3001      0.0246
      9  C9        -0.6020    3.9640  134.3730 C.2   3001  ET3001     -0.0441
     10  C10        0.4230    4.2960  133.4590 C.2   3001  ET3001     -0.0705
     11  C11       -1.2560    4.6030  131.6710 C.2   3001  ET3001     -0.0125
     12  C12        0.1610    4.6510  132.0800 C.3   3001  ET3001      0.0312
     13  C13        1.1940    5.0140  131.0670 C.ar  3001  ET3001     -0.0147
     14  C14        0.7790    5.3650  129.7260 C.ar  3001  ET3001      0.0398
     15  C15       -3.2450    4.8160  130.0020 C.ar  3001  ET3001     -0.0034
     16  C16       -4.1220    6.0100  130.0410 C.ar  3001  ET3001     -0.0528
     17  C17       -5.5080    5.9640  129.7140 C.ar  3001  ET3001     -0.0611
     18  C18       -6.1400    4.7620  129.3310 C.ar  3001  ET3001     -0.0617
     19  C19       -5.3650    3.5690  129.2780 C.ar  3001  ET3001     -0.0611
     20  C20       -3.9720    3.5930  129.5980 C.ar  3001  ET3001     -0.0528
     21  C21       -1.1500    5.6540  127.9990 C.3   3001  ET3001      0.0145
     22  C22       -1.6360    7.1220  127.9180 C.3   3001  ET3001     -0.0490
     23  N23        4.2340    6.1250  128.2100 N.pl3 3001  ET3001     -0.3579
     24  N24       -2.9690    3.5290  134.9610 N.pl3 3001  ET3001     -0.3580
     25 H           2.9456    4.8717  132.3659 H     3001  ET3001      0.0622
     26 H           4.6010    5.4647  130.7238 H     3001  ET3001      0.0636
     27 H           1.5705    5.9920  127.7713 H     3001  ET3001      0.0655
     28 H          -3.2639    4.2048  132.3818 H     3001  ET3001      0.0639
     29 H          -0.3406    3.7602  135.3503 H     3001  ET3001      0.0633
     30 H           1.4009    4.2850  133.7886 H     3001  ET3001      0.0582
     31 H           1.1550    5.0446  132.1240 H     3001  ET3001      0.0441
     32 H          -3.7105    6.9151  130.3173 H     3001  ET3001      0.0624
     33 H          -6.0640    6.8323  129.7584 H     3001  ET3001      0.0618
     34 H          -7.1443    4.7480  129.0940 H     3001  ET3001      0.0618
     35 H          -5.8125    2.6796  129.0064 H     3001  ET3001      0.0618
     36 H          -3.4443    2.7078  129.5441 H     3001  ET3001      0.0624
     37 H          -1.9717    5.0056  127.7770 H     3001  ET3001      0.0465
     38 H          -0.3562    5.5297  127.2923 H     3001  ET3001      0.0465
     39 H          -2.4320    7.2732  128.6169 H     3001  ET3001      0.0245
     40 H          -1.9865    7.3276  126.9282 H     3001  ET3001      0.0245
     41 H          -0.8253    7.7796  128.1530 H     3001  ET3001      0.0245
     42 H           5.1755    6.1281  128.4977 H     3001  ET3001      0.1423
     43 H           4.0003    6.3777  127.2876 H     3001  ET3001      0.1423
     44 H          -3.9144    3.4890  134.6894 H     3001  ET3001      0.1423
     45 H          -2.7135    3.3146  135.8873 H     3001  ET3001      0.1423
@<TRIPOS>BOND
     1     1     2   ar
     2     1    13   ar
     3     2     3   ar
     4     3     4   ar
     5     3    23    1
     6     4    14   ar
     7     5     6    1
     8     5    14    1
     9     5    21    1
    10     6    11    2
    11     6    15    1
    12     7     8    2
    13     7    11    1
    14     8     9    1
    15     8    24    1
    16     9    10    2
    17    10    12    1
    18    11    12    1
    19    12    13    1
    20    13    14   ar
    21    15    16   ar
    22    15    20   ar
    23    16    17   ar
    24    17    18   ar
    25    18    19   ar
    26    19    20   ar
    27    21    22    1
    28     1    25    1
    29     2    26    1
    30     4    27    1
    31     7    28    1
    32     9    29    1
    33    10    30    1
    34    12    31    1
    35    16    32    1
    36    17    33    1
    37    18    34    1
    38    19    35    1
    39    20    36    1
    40    21    37    1
    41    21    38    1
    42    22    39    1
    43    22    40    1
    44    22    41    1
    45    23    42    1
    46    23    43    1
    47    24    44    1
    48    24    45    1
