@<TRIPOS>MOLECULE
fua.pdb
 85 88 0 0 0
SMALL
GASTEIGER

@<TRIPOS>ATOM
      1  C1        47.7550  -29.0750  -67.1840 C.3   1101  FUA1101    -0.0447
      2  O1        47.4160  -31.9170  -67.7570 O.3   1101  FUA1101    -0.3915
      3  C2        48.5590  -27.8940  -66.6440 C.3   1101  FUA1101    -0.0261
      4  O2        43.6380  -33.3900  -72.9930 O.3   1101  FUA1101    -0.4570
      5  C3        49.6400  -27.4710  -67.6100 C.3   1101  FUA1101     0.0581
      6  O3        42.4220  -34.4100  -74.5710 O.2   1101  FUA1101    -0.2511
      7  C4        49.1330  -27.2630  -69.0450 C.3   1101  FUA1101    -0.0145
      8  O4        41.7600  -35.5450  -70.9220 O.2   1101  FUA1101    -0.2455
      9  C5        48.3110  -28.4910  -69.5390 C.3   1101  FUA1101    -0.0303
     10  O5        43.6540  -36.2800  -71.6390 O.3   1101  FUA1101    -0.4773
     11  C6        47.8890  -28.3590  -71.0060 C.3   1101  FUA1101    -0.0489
     12  O6        50.6860  -28.4420  -67.5540 O.3   1101  FUA1101    -0.3915
     13  C7        46.8260  -29.3750  -71.4280 C.3   1101  FUA1101    -0.0465
     14  C8        46.7290  -30.6170  -70.5280 C.3   1101  FUA1101    -0.0203
     15  C9        46.3610  -30.1060  -69.0900 C.3   1101  FUA1101    -0.0034
     16  C10       47.1300  -28.8380  -68.5760 C.3   1101  FUA1101    -0.0232
     17  C11       46.1760  -31.2820  -68.0840 C.3   1101  FUA1101     0.0596
     18  C12       45.2020  -32.3550  -68.5730 C.3   1101  FUA1101    -0.0194
     19  C13       45.5390  -32.8210  -70.0010 C.3   1101  FUA1101    -0.0073
     20  C14       45.5650  -31.6100  -70.9710 C.3   1101  FUA1101    -0.0160
     21  C15       45.7130  -32.3700  -72.3160 C.3   1101  FUA1101    -0.0052
     22  C16       44.8180  -33.6020  -72.1670 C.3   1101  FUA1101     0.1257
     23  C17       44.5380  -33.7450  -70.6750 C.2   1101  FUA1101    -0.0159
     24  C18       50.2880  -26.8760  -69.9790 C.3   1101  FUA1101    -0.0598
     25  C19       46.1560  -27.6450  -68.4460 C.3   1101  FUA1101    -0.0589
     26  C20       48.1040  -31.3360  -70.5860 C.3   1101  FUA1101    -0.0587
     27  C21       44.1900  -30.9070  -71.0340 C.3   1101  FUA1101    -0.0584
     28  C22       43.6290  -34.6380  -70.1670 C.2   1101  FUA1101     0.0397
     29  C23       43.3330  -34.7400  -68.6880 C.3   1101  FUA1101    -0.0174
     30  C24       44.1700  -35.8520  -68.0750 C.3   1101  FUA1101    -0.0303
     31  C25       43.7670  -36.1780  -66.6720 C.2   1101  FUA1101    -0.0850
     32  C26       43.0830  -37.2160  -66.2160 C.2   1101  FUA1101    -0.0796
     33  C27       42.8310  -38.4650  -67.0140 C.3   1101  FUA1101    -0.0440
     34  C28       42.4970  -37.2340  -64.8370 C.3   1101  FUA1101    -0.0440
     35  C29       42.9880  -35.4930  -70.9700 C.2   1101  FUA1101     0.3329
     36  C31       43.4960  -34.0910  -74.1480 C.2   1101  FUA1101     0.3045
     37  C32       44.7970  -34.3780  -74.8200 C.3   1101  FUA1101     0.0333
     38 H          46.9649  -29.2855  -66.4938 H     1101  FUA1101     0.0271
     39 H          48.4420  -29.8882  -67.2922 H     1101  FUA1101     0.0271
     40 H          48.0478  -31.2508  -67.4442 H     1101  FUA1101     0.2098
     41 H          49.0126  -28.1772  -65.7172 H     1101  FUA1101     0.0290
     42 H          47.8915  -27.0692  -66.5057 H     1101  FUA1101     0.0290
     43 H          50.0053  -26.5103  -67.3125 H     1101  FUA1101     0.0596
     44 H          48.4514  -26.4383  -69.0556 H     1101  FUA1101     0.0326
     45 H          48.9646  -29.3376  -69.5076 H     1101  FUA1101     0.0310
     46 H          44.5883  -36.2102  -71.6517 H     1101  FUA1101     0.2954
     47 H          48.7535  -28.4978  -71.6211 H     1101  FUA1101     0.0268
     48 H          47.4595  -27.3861  -71.1240 H     1101  FUA1101     0.0268
     49 H          50.3398  -29.3063  -67.8261 H     1101  FUA1101     0.2098
     50 H          47.0527  -29.7008  -72.4217 H     1101  FUA1101     0.0271
     51 H          45.8835  -28.8740  -71.3529 H     1101  FUA1101     0.0271
     52 H          45.3886  -29.6691  -69.1814 H     1101  FUA1101     0.0336
     53 H          45.7635  -30.8193  -67.2118 H     1101  FUA1101     0.0596
     54 H          44.2103  -31.9532  -68.5642 H     1101  FUA1101     0.0296
     55 H          45.2794  -33.1988  -67.9196 H     1101  FUA1101     0.0296
     56 H          46.4663  -33.3329  -69.8492 H     1101  FUA1101     0.0353
     57 H          46.7305  -32.6600  -72.4755 H     1101  FUA1101     0.0310
     58 H          45.4345  -31.7665  -73.1546 H     1101  FUA1101     0.0310
     59 H          45.2557  -34.5188  -72.5027 H     1101  FUA1101     0.0782
     60 H          51.0051  -27.6697  -70.0072 H     1101  FUA1101     0.0233
     61 H          50.7564  -25.9848  -69.6167 H     1101  FUA1101     0.0233
     62 H          49.9076  -26.7038  -70.9642 H     1101  FUA1101     0.0233
     63 H          46.6890  -26.7860  -68.0953 H     1101  FUA1101     0.0235
     64 H          45.3805  -27.8918  -67.7513 H     1101  FUA1101     0.0235
     65 H          45.7242  -27.4313  -69.4014 H     1101  FUA1101     0.0235
     66 H          48.8745  -30.6569  -70.2861 H     1101  FUA1101     0.0235
     67 H          48.2908  -31.6683  -71.5858 H     1101  FUA1101     0.0235
     68 H          48.0942  -32.1783  -69.9261 H     1101  FUA1101     0.0235
     69 H          44.0267  -30.3612  -70.1283 H     1101  FUA1101     0.0235
     70 H          43.4197  -31.6401  -71.1525 H     1101  FUA1101     0.0235
     71 H          44.1718  -30.2330  -71.8648 H     1101  FUA1101     0.0235
     72 H          42.2948  -34.9568  -68.5469 H     1101  FUA1101     0.0318
     73 H          43.5732  -33.8118  -68.2130 H     1101  FUA1101     0.0318
     74 H          45.1954  -35.5462  -68.0734 H     1101  FUA1101     0.0311
     75 H          44.0176  -36.7313  -68.6654 H     1101  FUA1101     0.0311
     76 H          44.0647  -35.4962  -65.9568 H     1101  FUA1101     0.0572
     77 H          43.2811  -38.3680  -67.9799 H     1101  FUA1101     0.0274
     78 H          41.7768  -38.6109  -67.1247 H     1101  FUA1101     0.0274
     79 H          43.2558  -39.3050  -66.5053 H     1101  FUA1101     0.0274
     80 H          42.7221  -36.3126  -64.3418 H     1101  FUA1101     0.0274
     81 H          42.9148  -38.0482  -64.2825 H     1101  FUA1101     0.0274
     82 H          41.4357  -37.3540  -64.9020 H     1101  FUA1101     0.0274
     83 H          45.5978  -33.9839  -74.2298 H     1101  FUA1101     0.0342
     84 H          44.8077  -33.9200  -75.7870 H     1101  FUA1101     0.0342
     85 H          44.9184  -35.4359  -74.9251 H     1101  FUA1101     0.0342
@<TRIPOS>BOND
     1     1     3    1
     2     1    16    1
     3     2    17    1
     4     3     5    1
     5     4    22    1
     6     4    36    1
     7     5     7    1
     8     5    12    1
     9     6    36    2
    10     7     9    1
    11     7    24    1
    12     8    35    2
    13     9    11    1
    14     9    16    1
    15    10    35    1
    16    11    13    1
    17    13    14    1
    18    14    15    1
    19    14    20    1
    20    14    26    1
    21    15    16    1
    22    15    17    1
    23    16    25    1
    24    17    18    1
    25    18    19    1
    26    19    20    1
    27    19    23    1
    28    20    21    1
    29    20    27    1
    30    21    22    1
    31    22    23    1
    32    23    28    2
    33    28    29    1
    34    28    35    1
    35    29    30    1
    36    30    31    1
    37    31    32    2
    38    32    33    1
    39    32    34    1
    40    36    37    1
    41     1    38    1
    42     1    39    1
    43     2    40    1
    44     3    41    1
    45     3    42    1
    46     5    43    1
    47     7    44    1
    48     9    45    1
    49    10    46    1
    50    11    47    1
    51    11    48    1
    52    12    49    1
    53    13    50    1
    54    13    51    1
    55    15    52    1
    56    17    53    1
    57    18    54    1
    58    18    55    1
    59    19    56    1
    60    21    57    1
    61    21    58    1
    62    22    59    1
    63    24    60    1
    64    24    61    1
    65    24    62    1
    66    25    63    1
    67    25    64    1
    68    25    65    1
    69    26    66    1
    70    26    67    1
    71    26    68    1
    72    27    69    1
    73    27    70    1
    74    27    71    1
    75    29    72    1
    76    29    73    1
    77    30    74    1
    78    30    75    1
    79    31    76    1
    80    33    77    1
    81    33    78    1
    82    33    79    1
    83    34    80    1
    84    34    81    1
    85    34    82    1
    86    37    83    1
    87    37    84    1
    88    37    85    1
