@<TRIPOS>MOLECULE
lfx.pdb
 46 49 0 0 0
SMALL
GASTEIGER

@<TRIPOS>ATOM
      1  N          7.1610   20.5670    8.8450 N.3   901  LFX901     -0.3024
      2  C         15.7670   16.7740    3.5710 C.2   901  LFX901      0.3420
      3  O         16.6860   16.3280    4.2780 O.2   901  LFX901     -0.2449
      4  C01        9.5810   20.6630    8.5560 C.3   901  LFX901      0.0252
      5  N01        9.5290   19.5130    7.6630 N.pl3 901  LFX901     -0.3224
      6  O01       10.1490   19.6540    5.0120 O.3   901  LFX901     -0.4859
      7  C02        8.2080   19.1720    7.1530 C.3   901  LFX901      0.0252
      8  N02       12.4910   18.5290    3.9600 N.ar  901  LFX901     -0.3367
      9  O02       15.1120   16.5610    6.4330 O.2   901  LFX901     -0.2863
     10  C03       11.5460   19.2550    3.0670 C.3   901  LFX901      0.0658
     11  O03       15.8010   16.8250    2.3270 O.3   901  LFX901     -0.4770
     12  C04       10.6890   18.9050    7.1890 C.ar  901  LFX901      0.1098
     13  C05       12.1970   18.4250    5.3260 C.ar  901  LFX901      0.0974
     14  C06       11.0140   18.9930    5.8330 C.ar  901  LFX901      0.1684
     15  C07        8.4370   20.6810    9.5420 C.3   901  LFX901      0.0144
     16  C08        7.1400   19.2520    8.2170 C.3   901  LFX901      0.0144
     17  C09       10.1630   19.1550    3.6690 C.3   901  LFX901      0.1101
     18  C10       13.0860   17.7520    6.1860 C.ar  901  LFX901      0.0524
     19  C11       11.6210   18.2360    8.0040 C.ar  901  LFX901      0.1487
     20  C12       13.6230   17.9920    3.4850 C.ar  901  LFX901      0.0233
     21  C13       12.7710   17.6600    7.5500 C.ar  901  LFX901     -0.0116
     22  C14       11.5460   18.6940    1.6560 C.3   901  LFX901     -0.0410
     23  C15       14.3090   17.1630    5.6620 C.ar  901  LFX901      0.2036
     24  C16        7.0170   21.6250    7.8440 C.3   901  LFX901     -0.0126
     25  C17       14.5410   17.3250    4.2590 C.ar  901  LFX901      0.1220
     26  F         11.3340   18.1380    9.3240 F     901  LFX901     -0.2034
     27 H           9.5416   21.5562    7.9681 H     901  LFX901      0.0476
     28 H          10.4913   20.6001    9.1148 H     901  LFX901      0.0476
     29 H           8.2356   18.1738    6.7686 H     901  LFX901      0.0476
     30 H           7.9609   19.8803    6.3900 H     901  LFX901      0.0476
     31 H          11.8561   20.2763    2.9910 H     901  LFX901      0.0559
     32 H          15.0724   17.1740    1.8523 H     901  LFX901      0.2954
     33 H           8.5429   19.8596   10.2195 H     901  LFX901      0.0442
     34 H           8.4570   21.6064   10.0788 H     901  LFX901      0.0442
     35 H           6.1816   19.0877    7.7704 H     901  LFX901      0.0442
     36 H           7.3267   18.5046    8.9596 H     901  LFX901      0.0442
     37 H           9.4812   19.7280    3.0759 H     901  LFX901      0.0717
     38 H           9.8726   18.1253    3.6854 H     901  LFX901      0.0717
     39 H          13.8170   18.0853    2.4757 H     901  LFX901      0.0819
     40 H          13.4002   17.1638    8.2003 H     901  LFX901      0.0654
     41 H          11.2408   17.6687    1.6798 H     901  LFX901      0.0251
     42 H          12.5313   18.7634    1.2446 H     901  LFX901      0.0251
     43 H          10.8659   19.2546    1.0493 H     901  LFX901      0.0251
     44 H           7.0353   22.5790    8.3282 H     901  LFX901      0.0391
     45 H           6.0870   21.5043    7.3287 H     901  LFX901      0.0391
     46 H           7.8234   21.5652    7.1433 H     901  LFX901      0.0391
@<TRIPOS>BOND
     1     1    15    1
     2     1    16    1
     3     1    24    1
     4     2     3    2
     5     2    11    1
     6     2    25    1
     7     4     5    1
     8     4    15    1
     9     5     7    1
    10     5    12    1
    11     6    14    1
    12     6    17    1
    13     7    16    1
    14     8    10    1
    15     8    13   ar
    16     8    20   ar
    17     9    23    2
    18    10    17    1
    19    10    22    1
    20    12    14   ar
    21    12    19   ar
    22    13    14   ar
    23    13    18   ar
    24    18    21   ar
    25    18    23   ar
    26    19    21   ar
    27    19    26    1
    28    20    25   ar
    29    23    25   ar
    30     4    27    1
    31     4    28    1
    32     7    29    1
    33     7    30    1
    34    10    31    1
    35    11    32    1
    36    15    33    1
    37    15    34    1
    38    16    35    1
    39    16    36    1
    40    17    37    1
    41    17    38    1
    42    20    39    1
    43    21    40    1
    44    22    41    1
    45    22    42    1
    46    22    43    1
    47    24    44    1
    48    24    45    1
    49    24    46    1
