@<TRIPOS>MOLECULE
mbx.pdb
 70 73 0 0 0
SMALL
GASTEIGER

@<TRIPOS>ATOM
      1  C1        11.5140   18.4570   11.3900 C.1   901  MBX901      0.1021
      2  N1        11.5920   18.2310   12.5260 N.1   901  MBX901     -0.1908
      3  C2        11.5430   18.6230   10.1250 C.ar  901  MBX901      0.0872
      4  C3        10.4660   19.2260    9.4430 C.ar  901  MBX901     -0.0161
      5  C4        10.5420   19.3780    8.0500 C.ar  901  MBX901      0.0225
      6  C5        11.6780   18.9230    7.3440 C.ar  901  MBX901      0.1284
      7  C6         9.2590   19.7290   10.2110 C.3   901  MBX901      0.0028
      8  N6        12.6570   18.3660    8.0540 N.ar  901  MBX901     -0.2242
      9  C7        12.6380   18.1720    9.3940 C.ar  901  MBX901      0.1167
     10  C8         9.3720   20.0290    7.3430 C.3   901  MBX901      0.0769
     11  O8         8.6360   20.9080    8.1520 O.3   901  MBX901     -0.3689
     12  S8        14.0350   17.4480   10.0640 S.3   901  MBX901     -0.1043
     13  C9        15.2630   17.3670    8.7750 C.3   901  MBX901      0.0037
     14  C10       15.0490   16.1190    7.9640 C.3   901  MBX901     -0.0183
     15  C11       16.1560   15.8900    6.9370 C.ar  901  MBX901     -0.0465
     16  C12       16.2440   16.6650    5.8040 C.ar  901  MBX901     -0.0568
     17  C13       17.2440   16.5040    4.8610 C.ar  901  MBX901     -0.0402
     18  C14       18.2160   15.5160    5.0190 C.ar  901  MBX901      0.0337
     19  C15       18.0830   14.7200    6.1420 C.ar  901  MBX901     -0.0402
     20  C16       17.0980   14.9140    7.0990 C.ar  901  MBX901     -0.0568
     21  C17       10.0220   19.0810    2.6830 C.3   901  MBX901     -0.0372
     22  N17       11.9110   18.9660    5.9430 N.pl3 901  MBX901     -0.3100
     23  C18       10.9110   18.5320    4.9850 C.3   901  MBX901      0.0396
     24  C19       11.1070   19.3550    3.7150 C.3   901  MBX901      0.0719
     25  C20       19.9770   14.8910    1.7360 C.2   901  MBX901     -0.0066
     26  O20       12.3420   18.9950    3.1080 O.3   901  MBX901     -0.3708
     27  C21       13.4190   18.7660    4.0320 C.3   901  MBX901      0.0719
     28  C22       13.1850   19.4180    5.3910 C.3   901  MBX901      0.0396
     29  C23       19.8840   15.1890    0.4160 C.2   901  MBX901     -0.0938
     30  C24       14.6970   19.2150    3.3400 C.3   901  MBX901     -0.0372
     31  C25        7.4990   21.5460   10.0600 C.3   901  MBX901     -0.0358
     32  C26        7.0590   19.3470    9.0390 C.3   901  MBX901     -0.0358
     33  N27       19.1500   15.1650    4.0720 N.am  901  MBX901     -0.2820
     34  C28       18.9720   15.3550    2.7410 C.2   901  MBX901      0.2405
     35  C30        8.1480   20.3570    9.3550 C.3   901  MBX901      0.0684
     36  O30       18.0120   15.9310    2.3050 O.2   901  MBX901     -0.2705
     37 H           9.5957   20.4674   10.9084 H     901  MBX901      0.0341
     38 H           8.8238   18.8677   10.6733 H     901  MBX901      0.0341
     39 H           8.7149   19.2578    6.9989 H     901  MBX901      0.0611
     40 H           9.7780   20.6107    6.5419 H     901  MBX901      0.0611
     41 H          16.2394   17.3464    9.2121 H     901  MBX901      0.0383
     42 H          15.1763   18.2255    8.1422 H     901  MBX901      0.0383
     43 H          14.1149   16.2010    7.4487 H     901  MBX901      0.0321
     44 H          15.0555   15.2885    8.6387 H     901  MBX901      0.0321
     45 H          15.5339   17.3979    5.6506 H     901  MBX901      0.0621
     46 H          17.2709   17.1203    4.0336 H     901  MBX901      0.0636
     47 H          18.7495   13.9433    6.2745 H     901  MBX901      0.0636
     48 H          17.0766   14.3163    7.9401 H     901  MBX901      0.0621
     49 H           9.0673   19.3369    3.0927 H     901  MBX901      0.0255
     50 H          10.0317   18.0433    2.4222 H     901  MBX901      0.0255
     51 H          10.2044   19.6702    1.8087 H     901  MBX901      0.0255
     52 H           9.9304   18.6972    5.3800 H     901  MBX901      0.0489
     53 H          11.0151   17.4874    4.7777 H     901  MBX901      0.0489
     54 H          11.0783   20.3850    4.0035 H     901  MBX901      0.0609
     55 H          20.7739   14.3208    2.0598 H     901  MBX901      0.0663
     56 H          13.4926   17.7267    4.2757 H     901  MBX901      0.0609
     57 H          13.9772   19.1459    6.0568 H     901  MBX901      0.0489
     58 H          13.1621   20.4813    5.2737 H     901  MBX901      0.0489
     59 H          19.0956   15.7578    0.0697 H     901  MBX901      0.0536
     60 H          20.6016   14.8469   -0.2420 H     901  MBX901      0.0536
     61 H          14.6242   20.2542    3.0959 H     901  MBX901      0.0255
     62 H          14.8358   18.6470    2.4439 H     901  MBX901      0.0255
     63 H          15.5299   19.0596    3.9934 H     901  MBX901      0.0255
     64 H           8.2475   22.2739   10.2940 H     901  MBX901      0.0257
     65 H           7.0306   21.2132   10.9626 H     901  MBX901      0.0257
     66 H           6.7641   21.9840    9.4173 H     901  MBX901      0.0257
     67 H           7.4892   18.5020    8.5433 H     901  MBX901      0.0257
     68 H           6.3270   19.7991    8.4029 H     901  MBX901      0.0257
     69 H           6.5934   19.0283    9.9482 H     901  MBX901      0.0257
     70 H          19.9915   14.7545    4.3763 H     901  MBX901      0.1551
@<TRIPOS>BOND
     1     1     3    1
     2     1     2    3
     3     3     4   ar
     4     3     9   ar
     5     4     5   ar
     6     4     7    1
     7     5    10    1
     8     5     6   ar
     9     6    22    1
    10     6     8   ar
    11     7    35    1
    12     8     9   ar
    13     9    12    1
    14    10    11    1
    15    11    35    1
    16    12    13    1
    17    13    14    1
    18    14    15    1
    19    15    16   ar
    20    15    20   ar
    21    16    17   ar
    22    17    18   ar
    23    18    33    1
    24    18    19   ar
    25    19    20   ar
    26    21    24    1
    27    22    23    1
    28    22    28    1
    29    23    24    1
    30    24    26    1
    31    25    29    2
    32    25    34    1
    33    26    27    1
    34    27    30    1
    35    27    28    1
    36    31    35    1
    37    32    35    1
    38    33    34   am
    39    34    36    2
    40     7    37    1
    41     7    38    1
    42    10    39    1
    43    10    40    1
    44    13    41    1
    45    13    42    1
    46    14    43    1
    47    14    44    1
    48    16    45    1
    49    17    46    1
    50    19    47    1
    51    20    48    1
    52    21    49    1
    53    21    50    1
    54    21    51    1
    55    23    52    1
    56    23    53    1
    57    24    54    1
    58    25    55    1
    59    27    56    1
    60    28    57    1
    61    28    58    1
    62    29    59    1
    63    29    60    1
    64    30    61    1
    65    30    62    1
    66    30    63    1
    67    31    64    1
    68    31    65    1
    69    31    66    1
    70    32    67    1
    71    32    68    1
    72    32    69    1
    73    33    70    1
