@<TRIPOS>MOLECULE
mc2.pdb
 126 130 0 0 0
SMALL
GASTEIGER

@<TRIPOS>ATOM
      1  C1         1.0480    5.1770  133.5030 C.3   7001  MC27001     0.0863
      2  N1         1.7730    6.3920  133.1810 N.3   7001  MC27001    -0.3197
      3  O1        -0.3270    4.1890  131.8530 O.2   7001  MC27001    -0.2741
      4  C2         0.8160    4.4070  132.2300 C.2   7001  MC27001     0.2308
      5  N2         1.8910    4.0220  131.5270 N.am  7001  MC27001    -0.3027
      6  O2         2.7690    2.0980  128.5990 O.2   7001  MC27001    -0.2734
      7  C3        -0.2840    5.5510  134.1660 C.3   7001  MC27001    -0.0039
      8  N3         1.8380    8.1720  129.4860 N.pl3 7001  MC27001    -0.1138
      9  C4        -0.2050    5.5500  135.6780 C.ar  7001  MC27001    -0.0454
     10  N4         2.0880   10.3630  129.8460 N.pl3 7001  MC27001    -0.2893
     11  C5        -0.5060    6.7090  136.3940 C.ar  7001  MC27001    -0.0585
     12  N5        -0.0080    9.6080  129.5370 N.pl3 7001  MC27001    -0.2893
     13  C6         0.1450    4.3850  136.3590 C.ar  7001  MC27001    -0.0585
     14  N6         4.0820    3.6410  129.5860 N.am  7001  MC27001    -0.2840
     15  C7        -0.4420    6.7050  137.7860 C.ar  7001  MC27001    -0.0615
     16  C8         0.2110    4.3820  137.7500 C.ar  7001  MC27001    -0.0615
     17  C9        -0.0840    5.5420  138.4650 C.ar  7001  MC27001    -0.0617
     18  C10        1.7310    3.4100  130.2090 C.3   7001  MC27001     0.0998
     19  C11        2.9500    2.9500  129.4550 C.2   7001  MC27001     0.2375
     20  C12        1.1060    4.4350  129.2460 C.3   7001  MC27001    -0.0230
     21  C13        1.9190    5.7330  129.1720 C.3   7001  MC27001    -0.0165
     22  C14        1.0450    6.9790  129.2410 C.3   7001  MC27001     0.1048
     23  C15        1.3110    9.3920  129.6240 C.cat 7001  MC27001     0.3765
     24  C16        6.5760    5.3970  127.5990 C.ar  7001  MC27001    -0.0523
     25  C17        5.7330    4.9960  128.6320 C.ar  7001  MC27001    -0.0399
     26  C18        6.5770    4.7200  126.3900 C.ar  7001  MC27001    -0.0178
     27  C19        4.8780    3.8950  128.5050 C.ar  7001  MC27001     0.0340
     28  C20        5.6640    3.5670  126.2270 C.ar  7001  MC27001    -0.0161
     29  C21        4.8350    3.1950  127.2840 C.ar  7001  MC27001    -0.0328
     30  C22        7.4080    5.0950  125.3380 C.ar  7001  MC27001    -0.0540
     31  C23        7.3700    4.3800  124.1410 C.ar  7001  MC27001    -0.0612
     32  C24        6.5090    3.2900  123.9820 C.ar  7001  MC27001    -0.0612
     33  C25        5.6600    2.8820  125.0160 C.ar  7001  MC27001    -0.0540
     34  C1         5.4260   41.5340  106.7270 C.3   7002  MC27002     0.0863
     35  N1         5.7770   41.4590  105.3210 N.3   7002  MC27002    -0.3197
     36  O1         4.3360   39.4450  106.9050 O.2   7002  MC27002    -0.2741
     37  C2         5.2760   40.1360  107.2650 C.2   7002  MC27002     0.2308
     38  N2         6.2500   39.7340  108.0940 N.am  7002  MC27002    -0.3027
     39  O2         7.5430   37.2140  110.2830 O.2   7002  MC27002    -0.2734
     40  C3         4.1540   42.3580  106.8860 C.3   7002  MC27002    -0.0039
     41  N3         6.2560   37.5640  103.9560 N.pl3 7002  MC27002    -0.1138
     42  C4         4.4750   43.8110  106.6050 C.ar  7002  MC27002    -0.0454
     43  N4         6.4880   37.8570  101.7610 N.pl3 7002  MC27002    -0.2893
     44  C5         4.1400   44.3720  105.3760 C.ar  7002  MC27002    -0.0585
     45  N5         5.8790   35.8060  102.4340 N.pl3 7002  MC27002    -0.2893
     46  C6         5.1090   44.5950  107.5680 C.ar  7002  MC27002    -0.0585
     47  N6         8.9600   38.6030  109.3390 N.am  7002  MC27002    -0.2840
     48  C7         4.4290   45.7060  105.1040 C.ar  7002  MC27002    -0.0615
     49  C8         5.3990   45.9320  107.3000 C.ar  7002  MC27002    -0.0615
     50  C9         5.0600   46.4880  106.0680 C.ar  7002  MC27002    -0.0617
     51  C10        6.3970   38.3980  108.6780 C.3   7002  MC27002     0.0998
     52  C11        7.6970   38.0820  109.4320 C.2   7002  MC27002     0.2375
     53  C12        6.0880   37.2570  107.6900 C.3   7002  MC27002    -0.0230
     54  C13        6.7980   37.3610  106.3430 C.3   7002  MC27002    -0.0165
     55  C14        5.9870   36.8090  105.1730 C.3   7002  MC27002     0.1048
     56  C15        6.2060   37.0740  102.7110 C.cat 7002  MC27002     0.3765
     57  C16        8.8830   42.0490  108.1760 C.ar  7002  MC27002    -0.0523
     58  C17        8.9860   40.9380  109.0200 C.ar  7002  MC27002    -0.0399
     59  C18        8.8970   41.8730  106.7950 C.ar  7002  MC27002    -0.0178
     60  C19        9.1510   39.6420  108.5080 C.ar  7002  MC27002     0.0340
     61  C20        9.0180   40.4980  106.2470 C.ar  7002  MC27002    -0.0161
     62  C21        9.1230   39.4240  107.1270 C.ar  7002  MC27002    -0.0328
     63  C22        8.8000   42.9480  105.9160 C.ar  7002  MC27002    -0.0540
     64  C23        8.8210   42.7210  104.5380 C.ar  7002  MC27002    -0.0612
     65  C24        8.9360   41.4250  104.0220 C.ar  7002  MC27002    -0.0612
     66  C25        9.0340   40.3180  104.8670 C.ar  7002  MC27002    -0.0540
     67 H           1.6069    4.5678  134.1822 H     7001  MC27001     0.0557
     68 H           1.2218    6.9554  132.5336 H     7001  MC27001     0.1189
     69 H           2.6646    6.1513  132.7480 H     7001  MC27001     0.1189
     70 H           2.7926    4.1521  131.9003 H     7001  MC27001     0.1495
     71 H          -1.0280    4.8448  133.8617 H     7001  MC27001     0.0333
     72 H          -0.5313    6.5448  133.8561 H     7001  MC27001     0.0333
     73 H           3.0586   10.2118  129.9112 H     7001  MC27001     0.2546
     74 H           1.7229   11.2709  129.9538 H     7001  MC27001     0.2546
     75 H          -0.7761    7.5696  135.8925 H     7001  MC27001     0.0620
     76 H          -0.6196    8.8561  129.3642 H     7001  MC27001     0.2546
     77 H          -0.3659   10.5187  129.6459 H     7001  MC27001     0.2546
     78 H           0.3555    3.5234  135.8314 H     7001  MC27001     0.0620
     79 H           4.3483    3.9729  130.4738 H     7001  MC27001     0.1549
     80 H          -0.6599    7.5642  138.3145 H     7001  MC27001     0.0618
     81 H           0.4784    3.5208  138.2518 H     7001  MC27001     0.0618
     82 H          -0.0373    5.5393  139.4959 H     7001  MC27001     0.0618
     83 H           1.1589    2.5413  130.4599 H     7001  MC27001     0.0595
     84 H           0.1175    4.6666  129.5838 H     7001  MC27001     0.0289
     85 H           1.0924    4.0005  128.2683 H     7001  MC27001     0.0289
     86 H           2.4607    5.7455  128.2493 H     7001  MC27001     0.0298
     87 H           2.5756    5.7517  130.0166 H     7001  MC27001     0.0298
     88 H           0.5255    7.0913  128.3124 H     7001  MC27001     0.0693
     89 H           0.3557    6.8615  130.0509 H     7001  MC27001     0.0693
     90 H           7.2046    6.2042  127.7347 H     7001  MC27001     0.0624
     91 H           5.7387    5.5261  129.5174 H     7001  MC27001     0.0636
     92 H           4.1853    2.4012  127.1709 H     7001  MC27001     0.0642
     93 H           8.0484    5.8974  125.4432 H     7001  MC27001     0.0624
     94 H           7.9861    4.6595  123.3617 H     7001  MC27001     0.0618
     95 H           6.4997    2.7776  123.0862 H     7001  MC27001     0.0618
     96 H           5.0318    2.0744  124.8809 H     7001  MC27001     0.0624
     97 H           6.1943   42.0217  107.2898 H     7002  MC27002     0.0557
     98 H           5.0296   40.9908  104.8085 H     7002  MC27002     0.1189
     99 H           6.6440   40.9323  105.2146 H     7002  MC27002     0.1189
    100 H           6.9330   40.4013  108.3338 H     7002  MC27002     0.1495
    101 H           3.7835   42.2583  107.8849 H     7002  MC27002     0.0333
    102 H           3.4086   42.0115  106.2010 H     7002  MC27002     0.0333
    103 H           6.7304   38.7924  101.9495 H     7002  MC27002     0.2546
    104 H           6.4655   37.5320  100.8320 H     7002  MC27002     0.2546
    105 H           3.6732   43.7936  104.6601 H     7002  MC27002     0.0620
    106 H           5.6568   35.1842  103.1642 H     7002  MC27002     0.2546
    107 H           5.8607   35.4951  101.5000 H     7002  MC27002     0.2546
    108 H           5.3639   44.1851  108.4802 H     7002  MC27002     0.0620
    109 H           9.7041   38.2286  109.8639 H     7002  MC27002     0.1549
    110 H           4.1764   46.1144  104.1905 H     7002  MC27002     0.0618
    111 H           5.8657   46.5111  108.0154 H     7002  MC27002     0.0618
    112 H           5.2762   47.4776  105.8704 H     7002  MC27002     0.0618
    113 H           5.6434   38.4460  109.4360 H     7002  MC27002     0.0595
    114 H           5.0333   37.2504  107.5098 H     7002  MC27002     0.0289
    115 H           6.4460   36.3589  108.1485 H     7002  MC27002     0.0289
    116 H           7.7167   36.8158  106.4033 H     7002  MC27002     0.0298
    117 H           6.9507   38.4026  106.1516 H     7002  MC27002     0.0298
    118 H           6.2509   35.7841  105.0157 H     7002  MC27002     0.0693
    119 H           4.9462   36.8936  105.4065 H     7002  MC27002     0.0693
    120 H           8.7969   42.9964  108.5760 H     7002  MC27002     0.0624
    121 H           8.9396   41.0747  110.0419 H     7002  MC27002     0.0636
    122 H           9.1805   38.4619  106.7580 H     7002  MC27002     0.0642
    123 H           8.7129   43.9093  106.2812 H     7002  MC27002     0.0624
    124 H           8.7506   43.5213  103.8902 H     7002  MC27002     0.0618
    125 H           8.9486   41.2854  102.9996 H     7002  MC27002     0.0618
    126 H           9.1180   39.3693  104.4696 H     7002  MC27002     0.0624
@<TRIPOS>BOND
     1     1     2    1
     2     1     7    1
     3     1     4    1
     4     3     4    2
     5     4     5   am
     6     5    18    1
     7     6    19    2
     8     7     9    1
     9     8    23    2
    10     8    22    1
    11     9    11   ar
    12     9    13   ar
    13    10    23    1
    14    11    15   ar
    15    12    23    1
    16    13    16   ar
    17    14    27    1
    18    14    19   am
    19    15    17   ar
    20    16    17   ar
    21    18    20    1
    22    18    19    1
    23    20    21    1
    24    21    22    1
    25    24    25   ar
    26    24    26   ar
    27    25    27   ar
    28    26    30   ar
    29    26    28   ar
    30    27    29   ar
    31    28    33   ar
    32    28    29   ar
    33    30    31   ar
    34    31    32   ar
    35    32    33   ar
    36    34    35    1
    37    34    40    1
    38    34    37    1
    39    36    37    2
    40    37    38   am
    41    38    51    1
    42    39    52    2
    43    40    42    1
    44    41    56    2
    45    41    55    1
    46    42    44   ar
    47    42    46   ar
    48    43    56    1
    49    44    48   ar
    50    45    56    1
    51    46    49   ar
    52    47    60    1
    53    47    52   am
    54    48    50   ar
    55    49    50   ar
    56    51    53    1
    57    51    52    1
    58    53    54    1
    59    54    55    1
    60    57    58   ar
    61    57    59   ar
    62    58    60   ar
    63    59    63   ar
    64    59    61   ar
    65    60    62   ar
    66    61    66   ar
    67    61    62   ar
    68    63    64   ar
    69    64    65   ar
    70    65    66   ar
    71     1    67    1
    72     2    68    1
    73     2    69    1
    74     5    70    1
    75     7    71    1
    76     7    72    1
    77    10    73    1
    78    10    74    1
    79    11    75    1
    80    12    76    1
    81    12    77    1
    82    13    78    1
    83    14    79    1
    84    15    80    1
    85    16    81    1
    86    17    82    1
    87    18    83    1
    88    20    84    1
    89    20    85    1
    90    21    86    1
    91    21    87    1
    92    22    88    1
    93    22    89    1
    94    24    90    1
    95    25    91    1
    96    29    92    1
    97    30    93    1
    98    31    94    1
    99    32    95    1
   100    33    96    1
   101    34    97    1
   102    35    98    1
   103    35    99    1
   104    38   100    1
   105    40   101    1
   106    40   102    1
   107    43   103    1
   108    43   104    1
   109    44   105    1
   110    45   106    1
   111    45   107    1
   112    46   108    1
   113    47   109    1
   114    48   110    1
   115    49   111    1
   116    50   112    1
   117    51   113    1
   118    53   114    1
   119    53   115    1
   120    54   116    1
   121    54   117    1
   122    55   118    1
   123    55   119    1
   124    57   120    1
   125    58   121    1
   126    62   122    1
   127    63   123    1
   128    64   124    1
   129    65   125    1
   130    66   126    1
