@<TRIPOS>MOLECULE
miy.pdb
 60 63 0 0 0
SMALL
GASTEIGER

@<TRIPOS>ATOM
      1  CN7      163.8330  130.9500   30.0450 C.3   2001  MIY2001     0.0004
      2  C1       170.5440  126.3780   27.4930 C.2   2001  MIY2001     0.2105
      3  N1       169.8910  122.8940   29.7340 N.3   2001  MIY2001    -0.2985
      4  O1       170.8910  127.3810   26.9010 O.2   2001  MIY2001    -0.2882
      5  C2       170.3380  125.1270   26.7260 C.2   2001  MIY2001     0.1208
      6  N2       169.7460  125.6810   24.4650 N.am  2001  MIY2001    -0.3252
      7  O2       169.7890  122.8690   26.7130 O.2   2001  MIY2001    -0.5086
      8  C3       169.8440  124.0340   27.3830 C.2   2001  MIY2001     0.1270
      9  C4       169.3180  124.0450   28.8530 C.3   2001  MIY2001     0.0746
     10  O4       169.2560  131.8320   32.4990 O.3   2001  MIY2001    -0.5060
     11  C5       169.2540  125.4600   29.5210 C.3   2001  MIY2001     0.0255
     12  O5       170.1950  130.2030   31.1410 O.2   2001  MIY2001    -0.2867
     13  C6       167.8800  126.1690   29.5420 C.3   2001  MIY2001    -0.0375
     14  O6       171.3070  128.4990   29.8890 O.2   2001  MIY2001    -0.5073
     15  C7       167.8440  127.3660   30.5220 C.3   2001  MIY2001    -0.0045
     16  N7       164.2660  129.8950   30.9700 N.pl3 2001  MIY2001    -0.3358
     17  O7       171.6200  125.8790   29.5570 O.3   2001  MIY2001    -0.3732
     18  C8       166.6710  128.3250   30.2080 C.3   2001  MIY2001    -0.0181
     19  O8       171.7080  124.5790   24.8380 O.2   2001  MIY2001    -0.2702
     20  C9       166.6860  129.6370   31.0160 C.ar  2001  MIY2001    -0.0115
     21  C10      165.5230  130.3310   31.3750 C.ar  2001  MIY2001     0.0333
     22  C11      165.6150  131.5240   32.1100 C.ar  2001  MIY2001    -0.0369
     23  C12      166.8450  132.0490   32.5040 C.ar  2001  MIY2001    -0.0177
     24  C13      168.0060  131.3680   32.1430 C.ar  2001  MIY2001     0.1280
     25  C14      167.9010  130.1850   31.4190 C.ar  2001  MIY2001     0.0683
     26  C15      169.1650  129.5230   31.0250 C.2   2001  MIY2001     0.1965
     27  C16      169.1100  128.1730   30.4230 C.2   2001  MIY2001     0.0438
     28  C17      170.2150  127.7250   29.7810 C.2   2001  MIY2001     0.1406
     29  C18      170.3830  126.3850   29.0340 C.3   2001  MIY2001     0.1898
     30  C19      171.3650  122.7490   29.8610 C.3   2001  MIY2001    -0.0124
     31  C20      169.2760  122.6760   31.0860 C.3   2001  MIY2001    -0.0124
     32  C21      170.6630  125.0940   25.2670 C.2   2001  MIY2001     0.2483
     33  C71      163.3040  129.9060   32.0930 C.3   2001  MIY2001     0.0004
     34 H         162.8607  130.7145   29.6654 H     2001  MIY2001     0.0428
     35 H         164.5260  131.0186   29.2327 H     2001  MIY2001     0.0428
     36 H         163.7967  131.8856   30.5629 H     2001  MIY2001     0.0428
     37 H         168.9324  126.0757   24.8542 H     2001  MIY2001     0.1453
     38 H         169.8920  125.7137   23.4919 H     2001  MIY2001     0.1453
     39 H         170.0952  122.8222   25.8287 H     2001  MIY2001     0.2918
     40 H         168.2799  123.7978   28.7744 H     2001  MIY2001     0.0547
     41 H         169.3390  132.6277   32.9867 H     2001  MIY2001     0.2922
     42 H         169.4156  125.2386   30.5553 H     2001  MIY2001     0.0357
     43 H         167.1336  125.4615   29.8374 H     2001  MIY2001     0.0276
     44 H         167.6959  126.5490   28.5588 H     2001  MIY2001     0.0276
     45 H         171.2557  129.3221   30.3337 H     2001  MIY2001     0.2918
     46 H         167.7283  126.9506   31.5013 H     2001  MIY2001     0.0354
     47 H         171.8200  125.0243   29.1442 H     2001  MIY2001     0.2113
     48 H         165.7552  127.8132   30.4183 H     2001  MIY2001     0.0320
     49 H         166.7692  128.5998   29.1786 H     2001  MIY2001     0.0320
     50 H         164.7497  132.0251   32.3651 H     2001  MIY2001     0.0637
     51 H         166.8946  132.9227   33.0510 H     2001  MIY2001     0.0655
     52 H         171.5882  121.9170   30.4957 H     2001  MIY2001     0.0391
     53 H         171.7760  123.6413   30.2850 H     2001  MIY2001     0.0391
     54 H         171.7918  122.5843   28.8937 H     2001  MIY2001     0.0391
     55 H         169.7665  121.8595   31.5735 H     2001  MIY2001     0.0391
     56 H         168.2361  122.4511   30.9727 H     2001  MIY2001     0.0391
     57 H         169.3871  123.5620   31.6755 H     2001  MIY2001     0.0391
     58 H         162.3497  129.5661   31.7485 H     2001  MIY2001     0.0428
     59 H         163.2118  130.9016   32.4739 H     2001  MIY2001     0.0428
     60 H         163.6544  129.2582   32.8692 H     2001  MIY2001     0.0428
@<TRIPOS>BOND
     1     1    16    1
     2     2     4    2
     3     2    29    1
     4     2     5    1
     5     3    30    1
     6     3    31    1
     7     3     9    1
     8     5     8    2
     9     5    32    1
    10     6    32   am
    11     7     8    1
    12     8     9    1
    13     9    11    1
    14    10    24    1
    15    11    13    1
    16    11    29    1
    17    12    26    2
    18    13    15    1
    19    14    28    1
    20    15    18    1
    21    15    27    1
    22    16    33    1
    23    16    21    1
    24    17    29    1
    25    18    20    1
    26    19    32    2
    27    20    21   ar
    28    20    25   ar
    29    21    22   ar
    30    22    23   ar
    31    23    24   ar
    32    24    25   ar
    33    25    26    1
    34    26    27    1
    35    27    28    2
    36    28    29    1
    37     1    34    1
    38     1    35    1
    39     1    36    1
    40     6    37    1
    41     6    38    1
    42     7    39    1
    43     9    40    1
    44    10    41    1
    45    11    42    1
    46    13    43    1
    47    13    44    1
    48    14    45    1
    49    15    46    1
    50    17    47    1
    51    18    48    1
    52    18    49    1
    53    22    50    1
    54    23    51    1
    55    30    52    1
    56    30    53    1
    57    30    54    1
    58    31    55    1
    59    31    56    1
    60    31    57    1
    61    33    58    1
    62    33    59    1
    63    33    60    1
