@<TRIPOS>MOLECULE
nfn.pdb
 102 108 0 0 0
SMALL
GASTEIGER

@<TRIPOS>ATOM
      1  C1        -0.2850   11.2470  127.7800 C.ar  6001  NFN6001     0.0859
      2  N1        -2.0350   12.1760  126.2960 N.am  6001  NFN6001    -0.2976
      3  O1        -1.6670   11.2160  129.8060 O.3   6001  NFN6001    -0.4915
      4  S1         0.3580   13.5970  123.5330 S.3   6001  NFN6001    -0.1273
      5  C2        -0.4040   11.2840  129.2650 C.ar  6001  NFN6001     0.1332
      6  N2        -1.4900   11.8350  122.9160 N.am  6001  NFN6001    -0.2708
      7  O2        -2.1150   10.0480  126.9280 O.2   6001  NFN6001    -0.2700
      8  C3         0.7400   11.3910  130.0680 C.ar  6001  NFN6001    -0.0186
      9  O3        -3.3030   10.4200  123.4380 O.2   6001  NFN6001    -0.2734
     10  C4         2.0250   11.4620  129.5260 C.ar  6001  NFN6001    -0.0505
     11  O4        -2.7460   13.3720  120.8680 O.2   6001  NFN6001    -0.2489
     12  C5         3.5520   11.5050  127.6330 C.ar  6001  NFN6001    -0.0540
     13  O5        -2.2370   11.6010  119.6790 O.3   6001  NFN6001    -0.4793
     14  C6         3.4960   11.4540  126.2630 C.ar  6001  NFN6001    -0.0612
     15  C7         2.5900   11.3570  125.2370 C.ar  6001  NFN6001    -0.0611
     16  C8         1.2840   11.2820  125.7620 C.ar  6001  NFN6001    -0.0532
     17  C9         1.0800   11.3170  127.1770 C.ar  6001  NFN6001    -0.0022
     18  C10        2.2470   11.4310  128.1500 C.ar  6001  NFN6001    -0.0169
     19  C11       -1.5470   11.1280  126.9640 C.2   6001  NFN6001     0.2489
     20  C12       -2.0630   12.0860  124.8550 C.3   6001  NFN6001     0.1279
     21  C13       -1.1220   12.7780  123.8780 C.3   6001  NFN6001     0.1005
     22  C14       -2.3660   11.1600  123.6800 C.2   6001  NFN6001     0.2402
     23  C15        0.2210   13.1090  121.8150 C.3   6001  NFN6001     0.0417
     24  C16       -0.9220   12.0320  121.6010 C.3   6001  NFN6001     0.1379
     25  C17       -1.9200   11.0550  131.2020 C.3   6001  NFN6001     0.0868
     26  C18       -3.4140   10.9860  131.4460 C.3   6001  NFN6001    -0.0307
     27  C19        1.5710   12.4510  121.5110 C.3   6001  NFN6001    -0.0484
     28  C20        0.0830   14.4120  121.0270 C.3   6001  NFN6001    -0.0484
     29  C21       -2.0350   12.3660  120.6490 C.2   6001  NFN6001     0.3269
     30  C1         7.9660   39.5730  103.1730 C.ar  6002  NFN6002     0.0859
     31  N1         8.9420   38.4440  101.1960 N.am  6002  NFN6002    -0.2976
     32  O1         8.9370   37.3680  103.8960 O.3   6002  NFN6002    -0.4915
     33  S1         8.8580   35.5560  101.5510 S.3   6002  NFN6002    -0.1273
     34  C2         8.1100   38.4440  104.1560 C.ar  6002  NFN6002     0.1332
     35  N2         8.0440   36.1290   99.2490 N.am  6002  NFN6002    -0.2708
     36  O2         9.1250   40.6430  101.4140 O.2   6002  NFN6002    -0.2700
     37  C3         7.3960   38.4730  105.3630 C.ar  6002  NFN6002    -0.0186
     38  O3         7.5250   37.6100   97.5930 O.2   6002  NFN6002    -0.2734
     39  C4         6.5430   39.5120  105.7160 C.ar  6002  NFN6002    -0.0505
     40  O4         9.7160   34.4970   97.6350 O.2   6002  NFN6002    -0.2489
     41  C5         5.4760   41.6320  105.2820 C.ar  6002  NFN6002    -0.0540
     42  O5         7.9400   33.2620   97.2570 O.3   6002  NFN6002    -0.4793
     43  C6         5.4360   42.5810  104.2960 C.ar  6002  NFN6002    -0.0612
     44  C7         5.9810   42.8690  103.0730 C.ar  6002  NFN6002    -0.0611
     45  C8         6.8440   41.8310  102.6740 C.ar  6002  NFN6002    -0.0532
     46  C9         7.0510   40.7040  103.5380 C.ar  6002  NFN6002    -0.0022
     47  C10        6.3420   40.6020  104.8830 C.ar  6002  NFN6002    -0.0169
     48  C11        8.7170   39.5820  101.8600 C.2   6002  NFN6002     0.2489
     49  C12        8.5150   38.1970   99.8160 C.3   6002  NFN6002     0.1279
     50  C13        8.7830   36.7010  100.2490 C.3   6002  NFN6002     0.1005
     51  C14        7.8400   37.2980   98.7300 C.2   6002  NFN6002     0.2402
     52  C15        8.4210   34.1660  100.5240 C.3   6002  NFN6002     0.0417
     53  C16        7.8930   34.6910   99.1450 C.3   6002  NFN6002     0.1379
     54  C17        9.3180   36.4490  104.9360 C.3   6002  NFN6002     0.0868
     55  C18       10.3570   35.4340  104.4840 C.3   6002  NFN6002    -0.0307
     56  C19        7.3310   33.3900  101.2600 C.3   6002  NFN6002    -0.0484
     57  C20        9.6890   33.3140  100.4260 C.3   6002  NFN6002    -0.0484
     58  C21        8.5650   34.1120   97.9310 C.2   6002  NFN6002     0.3269
     59 H          -2.3621   12.9767  126.7662 H     6001  NFN6001     0.1499
     60 H           0.6289   11.4182  131.0936 H     6001  NFN6001     0.0654
     61 H           2.8337   11.5397  130.1624 H     6001  NFN6001     0.0625
     62 H           4.4144   11.5849  128.1942 H     6001  NFN6001     0.0624
     63 H          -1.6837   10.8565  119.5463 H     6001  NFN6001     0.2951
     64 H           4.4514   11.5057  125.8762 H     6001  NFN6001     0.0618
     65 H           2.8286   11.3413  124.2331 H     6001  NFN6001     0.0618
     66 H           0.4755   11.2019  125.1256 H     6001  NFN6001     0.0624
     67 H          -2.8332   12.2438  125.5808 H     6001  NFN6001     0.0622
     68 H          -1.0851   13.7786  124.2554 H     6001  NFN6001     0.0640
     69 H          -0.4630   11.1803  121.1441 H     6001  NFN6001     0.0631
     70 H          -1.5105   11.8870  131.7359 H     6001  NFN6001     0.0694
     71 H          -1.4633   10.1493  131.5426 H     6001  NFN6001     0.0694
     72 H          -3.8731   11.8908  131.1061 H     6001  NFN6001     0.0262
     73 H          -3.5992   10.8635  132.4927 H     6001  NFN6001     0.0262
     74 H          -3.8247   10.1550  130.9115 H     6001  NFN6001     0.0262
     75 H           2.3554   13.1652  121.6507 H     6001  NFN6001     0.0244
     76 H           1.5794   12.1055  120.4984 H     6001  NFN6001     0.0244
     77 H           1.7209   11.6228  122.1717 H     6001  NFN6001     0.0244
     78 H           0.9081   15.0547  121.2531 H     6001  NFN6001     0.0244
     79 H          -0.8316   14.8972  121.2974 H     6001  NFN6001     0.0244
     80 H           0.0759   14.1960  119.9790 H     6001  NFN6001     0.0244
     81 H           9.4257   37.7255  101.6641 H     6002  NFN6002     0.1499
     82 H           7.5094   37.6854  106.0202 H     6002  NFN6002     0.0654
     83 H           6.0472   39.4712  106.6202 H     6002  NFN6002     0.0625
     84 H           4.9551   41.6680  106.1722 H     6002  NFN6002     0.0624
     85 H           7.0777   33.0014   97.5150 H     6002  NFN6002     0.2951
     86 H           4.7755   43.3276  104.5632 H     6002  NFN6002     0.0618
     87 H           5.7874   43.7216  102.5247 H     6002  NFN6002     0.0618
     88 H           7.3263   41.8803  101.7630 H     6002  NFN6002     0.0624
     89 H           8.4935   39.1954   99.4317 H     6002  NFN6002     0.0622
     90 H           9.7662   36.8943  100.6244 H     6002  NFN6002     0.0640
     91 H           6.8820   34.3815   98.9808 H     6002  NFN6002     0.0631
     92 H           8.4455   35.9216  105.2609 H     6002  NFN6002     0.0694
     93 H           9.7557   37.0238  105.7252 H     6002  NFN6002     0.0694
     94 H           9.9530   34.8385  103.6921 H     6002  NFN6002     0.0262
     95 H          10.6200   34.8024  105.3067 H     6002  NFN6002     0.0262
     96 H          11.2288   35.9471  104.1353 H     6002  NFN6002     0.0262
     97 H           7.7122   33.0414  102.1970 H     6002  NFN6002     0.0244
     98 H           7.0254   32.5541  100.6661 H     6002  NFN6002     0.0244
     99 H           6.4917   34.0308  101.4326 H     6002  NFN6002     0.0244
    100 H           9.9822   32.9969  101.4050 H     6002  NFN6002     0.0244
    101 H          10.4750   33.8933   99.9884 H     6002  NFN6002     0.0244
    102 H           9.4961   32.4563   99.8161 H     6002  NFN6002     0.0244
@<TRIPOS>BOND
     1     1    19    1
     2     1     5   ar
     3     1    17   ar
     4     2    19   am
     5     2    20    1
     6     3     5    1
     7     3    25    1
     8     4    21    1
     9     4    23    1
    10     5     8   ar
    11     6    21    1
    12     6    24    1
    13     6    22   am
    14     7    19    2
    15     8    10   ar
    16     9    22    2
    17    10    18   ar
    18    11    29    2
    19    12    14   ar
    20    12    18   ar
    21    13    29    1
    22    14    15   ar
    23    15    16   ar
    24    16    17   ar
    25    17    18   ar
    26    20    21    1
    27    20    22    1
    28    23    27    1
    29    23    28    1
    30    23    24    1
    31    24    29    1
    32    25    26    1
    33    30    48    1
    34    30    34   ar
    35    30    46   ar
    36    31    48   am
    37    31    49    1
    38    32    34    1
    39    32    54    1
    40    33    50    1
    41    33    52    1
    42    34    37   ar
    43    35    50    1
    44    35    53    1
    45    35    51   am
    46    36    48    2
    47    37    39   ar
    48    38    51    2
    49    39    47   ar
    50    40    58    2
    51    41    43   ar
    52    41    47   ar
    53    42    58    1
    54    43    44   ar
    55    44    45   ar
    56    45    46   ar
    57    46    47   ar
    58    49    50    1
    59    49    51    1
    60    52    56    1
    61    52    57    1
    62    52    53    1
    63    53    58    1
    64    54    55    1
    65     2    59    1
    66     8    60    1
    67    10    61    1
    68    12    62    1
    69    13    63    1
    70    14    64    1
    71    15    65    1
    72    16    66    1
    73    20    67    1
    74    21    68    1
    75    24    69    1
    76    25    70    1
    77    25    71    1
    78    26    72    1
    79    26    73    1
    80    26    74    1
    81    27    75    1
    82    27    76    1
    83    27    77    1
    84    28    78    1
    85    28    79    1
    86    28    80    1
    87    31    81    1
    88    37    82    1
    89    39    83    1
    90    41    84    1
    91    42    85    1
    92    43    86    1
    93    44    87    1
    94    45    88    1
    95    49    89    1
    96    50    90    1
    97    53    91    1
    98    54    92    1
    99    54    93    1
   100    55    94    1
   101    55    95    1
   102    55    96    1
   103    56    97    1
   104    56    98    1
   105    56    99    1
   106    57   100    1
   107    57   101    1
   108    57   102    1
