@<TRIPOS>MOLECULE
p9d.pdb
 89 93 0 0 0
SMALL
GASTEIGER

@<TRIPOS>ATOM
      1  C1        59.2560   30.9480   42.9430 C.3   2000  P9D2000    -0.0546
      2  C2        58.9270   32.0210   43.9680 C.3   2000  P9D2000     0.0051
      3  C3        59.0960   31.4830   45.3940 C.3   2000  P9D2000    -0.0546
      4  C4        57.5270   32.4880   43.6980 C.ar  2000  P9D2000     0.0559
      5  C5        59.8800   33.1880   43.7950 C.3   2000  P9D2000    -0.0546
      6  N6        56.5020   31.9980   44.4350 N.ar  2000  P9D2000    -0.2290
      7  C7        55.3820   32.5950   43.9960 C.ar  2000  P9D2000     0.1648
      8  S8        55.6480   33.6300   42.7730 S.2   2000  P9D2000    -0.0602
      9  C9        57.2670   33.4170   42.6970 C.ar  2000  P9D2000     0.0007
     10  N10       54.1820   32.3090   44.5370 N.am  2000  P9D2000    -0.2607
     11  C11       53.0870   33.0540   44.4480 C.2   2000  P9D2000     0.2499
     12  C12       51.8800   32.5740   45.2180 C.ar  2000  P9D2000     0.0419
     13  O13       53.0440   34.0870   43.8000 O.2   2000  P9D2000    -0.2698
     14  C14       52.0370   31.4860   46.0900 C.ar  2000  P9D2000    -0.0065
     15  C15       50.9670   31.0040   46.8320 C.ar  2000  P9D2000     0.1431
     16  N16       49.6780   31.6590   46.6770 N.ar  2000  P9D2000    -0.2676
     17  C17       49.5290   32.7880   45.7760 C.ar  2000  P9D2000     0.0153
     18  C18       50.6430   33.2150   45.0680 C.ar  2000  P9D2000    -0.0328
     19  N19       51.1470   29.9570   47.6920 N.ar  2000  P9D2000    -0.2137
     20  C20       48.5560   31.1700   47.4460 C.ar  2000  P9D2000     0.2673
     21  C21       50.1420   29.4290   48.4570 C.ar  2000  P9D2000     0.1361
     22  C22       48.7770   30.0140   48.3730 C.ar  2000  P9D2000     0.0798
     23  O23       47.4410   31.7140   47.3120 O.2   2000  P9D2000    -0.2665
     24  N24       50.3590   28.3470   49.3390 N.pl3 2000  P9D2000    -0.3110
     25  C25       47.6840   29.4460   49.1930 C.2   2000  P9D2000    -0.0425
     26  C26       46.5340   29.2890   48.5800 C.2   2000  P9D2000    -0.0131
     27  C27       45.3110   28.7470   49.2040 C.ar  2000  P9D2000     0.1973
     28  N28       45.1340   27.4390   49.4010 N.ar  2000  P9D2000    -0.1337
     29  N29       43.8520   27.3500   49.9670 N.ar  2000  P9D2000    -0.1761
     30  N30       43.3220   28.6620   50.0610 N.ar  2000  P9D2000    -0.0485
     31  N31       44.2810   29.5430   49.5420 N.ar  2000  P9D2000    -0.1086
     32  C32       51.0600   27.1190   48.8680 C.3   2000  P9D2000     0.0507
     33  C33       50.7300   25.8200   49.6300 C.3   2000  P9D2000     0.1203
     34  O34       50.1330   24.7810   48.7990 O.3   2000  P9D2000    -0.4455
     35  C35       49.8900   26.1250   50.8640 C.3   2000  P9D2000    -0.0127
     36  C36       50.3490   27.4020   51.5460 C.3   2000  P9D2000    -0.0338
     37  C37       49.8780   28.5730   50.7030 C.3   2000  P9D2000     0.0138
     38  C38       48.6750   24.7720   48.4500 C.2   2000  P9D2000     0.4005
     39  N39       47.8360   23.9230   49.0760 N.am  2000  P9D2000    -0.2829
     40  C40       46.5350   24.2920   49.6150 C.3   2000  P9D2000     0.0004
     41  C41       46.2410   23.6070   50.9550 C.3   2000  P9D2000    -0.0718
     42  N42       46.5250   24.3880   52.1970 N.4   2000  P9D2000     0.3843
     43  C43       47.9270   24.2190   52.6560 C.3   2000  P9D2000     0.0115
     44  O44       48.2540   25.5010   47.5580 O.2   2000  P9D2000    -0.2265
     45  C45       48.4610   22.8740   53.1520 C.2   2000  P9D2000     0.2884
     46  O46       47.7930   22.1450   53.9260 O.2   2000  P9D2000    -0.2531
     47  O47       49.6120   22.5350   52.7780 O.3   2000  P9D2000    -0.4819
     48  C48       46.3230   25.8260   51.9880 C.3   2000  P9D2000    -0.1000
     49  C49       45.5500   24.0140   53.2390 C.3   2000  P9D2000    -0.1000
     50 H          58.5852   30.1230   43.0624 H     2000  P9D2000     0.0239
     51 H          60.2621   30.6134   43.0873 H     2000  P9D2000     0.0239
     52 H          59.1524   31.3522   41.9577 H     2000  P9D2000     0.0239
     53 H          58.4334   30.6564   45.5442 H     2000  P9D2000     0.0239
     54 H          58.8661   32.2566   46.0966 H     2000  P9D2000     0.0239
     55 H          60.1063   31.1607   45.5362 H     2000  P9D2000     0.0239
     56 H          60.8811   32.8623   43.9861 H     2000  P9D2000     0.0239
     57 H          59.6204   33.9654   44.4828 H     2000  P9D2000     0.0239
     58 H          59.8108   33.5596   42.7940 H     2000  P9D2000     0.0239
     59 H          57.9389   33.8670   42.0559 H     2000  P9D2000     0.0712
     60 H          54.1104   31.4692   45.0458 H     2000  P9D2000     0.1571
     61 H          52.9618   31.0372   46.1812 H     2000  P9D2000     0.0662
     62 H          48.6182   33.2604   45.6652 H     2000  P9D2000     0.0814
     63 H          50.5595   34.0156   44.4221 H     2000  P9D2000     0.0640
     64 H          47.8174   29.1896   50.1837 H     2000  P9D2000     0.0627
     65 H          46.4809   29.5653   47.5871 H     2000  P9D2000     0.0656
     66 H          43.4003   26.5220   50.2491 H     2000  P9D2000     0.2143
     67 H          52.1129   27.2900   48.9525 H     2000  P9D2000     0.0500
     68 H          50.7222   26.9598   47.8653 H     2000  P9D2000     0.0500
     69 H          51.6643   25.4068   49.9481 H     2000  P9D2000     0.0750
     70 H          49.9767   25.3116   51.5537 H     2000  P9D2000     0.0302
     71 H          48.8737   26.2550   50.5554 H     2000  P9D2000     0.0302
     72 H          51.4164   27.4122   51.6192 H     2000  P9D2000     0.0282
     73 H          49.9426   27.4651   52.5338 H     2000  P9D2000     0.0282
     74 H          48.8092   28.6237   50.7109 H     2000  P9D2000     0.0464
     75 H          50.2561   29.4959   51.0906 H     2000  P9D2000     0.0464
     76 H          48.1234   22.9867   49.1758 H     2000  P9D2000     0.1519
     77 H          45.7793   24.0099   48.9119 H     2000  P9D2000     0.0445
     78 H          46.5397   25.3487   49.7832 H     2000  P9D2000     0.0445
     79 H          46.8278   22.7132   50.9954 H     2000  P9D2000     0.0079
     80 H          45.1819   23.4545   50.9607 H     2000  P9D2000     0.0079
     81 H          48.0642   24.9108   53.4606 H     2000  P9D2000     0.0175
     82 H          48.4785   24.3593   51.7499 H     2000  P9D2000     0.0175
     83 H          50.0990   23.0890   52.2002 H     2000  P9D2000     0.2950
     84 H          47.0011   26.1761   51.2380 H     2000  P9D2000     0.0028
     85 H          46.5037   26.3484   52.9042 H     2000  P9D2000     0.0028
     86 H          45.3169   26.0022   51.6694 H     2000  P9D2000     0.0028
     87 H          45.6362   22.9684   53.4493 H     2000  P9D2000     0.0028
     88 H          44.5599   24.2281   52.8944 H     2000  P9D2000     0.0028
     89 H          45.7467   24.5742   54.1291 H     2000  P9D2000     0.0028
@<TRIPOS>BOND
     1     1     2    1
     2     2     3    1
     3     2     4    1
     4     2     5    1
     5     4     6   ar
     6     4     9   ar
     7     6     7   ar
     8     7     8   ar
     9     7    10    1
    10     8     9   ar
    11    10    11   am
    12    11    12    1
    13    11    13    2
    14    12    14   ar
    15    12    18   ar
    16    14    15   ar
    17    15    16   ar
    18    15    19   ar
    19    16    17   ar
    20    16    20   ar
    21    17    18   ar
    22    19    21   ar
    23    20    22   ar
    24    20    23    2
    25    21    22   ar
    26    21    24    1
    27    22    25    1
    28    24    32    1
    29    24    37    1
    30    25    26    2
    31    26    27    1
    32    27    28   ar
    33    27    31   ar
    34    28    29   ar
    35    29    30   ar
    36    30    31   ar
    37    32    33    1
    38    33    34    1
    39    33    35    1
    40    34    38    1
    41    35    36    1
    42    36    37    1
    43    38    39   am
    44    38    44    2
    45    39    40    1
    46    40    41    1
    47    41    42    1
    48    42    43    1
    49    42    48    1
    50    42    49    1
    51    43    45    1
    52    45    46    2
    53    45    47    1
    54     1    50    1
    55     1    51    1
    56     1    52    1
    57     3    53    1
    58     3    54    1
    59     3    55    1
    60     5    56    1
    61     5    57    1
    62     5    58    1
    63     9    59    1
    64    10    60    1
    65    14    61    1
    66    17    62    1
    67    18    63    1
    68    25    64    1
    69    26    65    1
    70    29    66    1
    71    32    67    1
    72    32    68    1
    73    33    69    1
    74    35    70    1
    75    35    71    1
    76    36    72    1
    77    36    73    1
    78    37    74    1
    79    37    75    1
    80    39    76    1
    81    40    77    1
    82    40    78    1
    83    41    79    1
    84    41    80    1
    85    43    81    1
    86    43    82    1
    87    47    83    1
    88    48    84    1
    89    48    85    1
    90    48    86    1
    91    49    87    1
    92    49    88    1
    93    49    89    1
