@<TRIPOS>MOLECULE
puy.pdb
 63 66 0 0 0
SMALL
GASTEIGER

@<TRIPOS>ATOM
      1  N         24.1660  -48.9920  -50.7180 N.3   1120  PUY1120    -0.3197
      2  CA        24.4270  -50.3670  -50.9640 C.3   1120  PUY1120     0.0863
      3  C         25.9870  -50.5270  -51.2020 C.2   1120  PUY1120     0.2305
      4  O         26.6820  -49.9060  -50.5360 O.2   1120  PUY1120    -0.2741
      5  CB        23.3270  -50.8100  -51.9560 C.3   1120  PUY1120    -0.0039
      6  CG        21.9080  -51.4100  -51.6900 C.ar  1120  PUY1120    -0.0452
      7  CD1       21.6730  -52.5020  -50.9470 C.ar  1120  PUY1120    -0.0551
      8  CD2       20.8040  -51.0030  -52.4350 C.ar  1120  PUY1120    -0.0551
      9  CE1       20.4090  -53.0840  -50.8240 C.ar  1120  PUY1120    -0.0197
     10  CE2       19.5090  -51.5470  -52.3540 C.ar  1120  PUY1120    -0.0197
     11  CZ        19.3240  -52.6340  -51.5390 C.ar  1120  PUY1120     0.1201
     12  CMZ       18.0350  -54.5020  -50.7090 C.3   1120  PUY1120     0.0788
     13  OM        18.0820  -53.2960  -51.4090 O.3   1120  PUY1120    -0.4951
     14  C5'       29.3740  -50.2800  -50.1850 C.3   1120  PUY1120     0.0723
     15  O5'       30.6920  -50.2260  -49.8160 O.3   1120  PUY1120    -0.3924
     16  C4'       29.1810  -50.3030  -51.7160 C.3   1120  PUY1120     0.1050
     17  O4'       30.2830  -50.4580  -52.4660 O.3   1120  PUY1120    -0.3464
     18  C3'       28.2300  -51.5170  -52.0270 C.3   1120  PUY1120     0.0816
     19  N3'       26.7750  -51.4130  -52.0940 N.am  1120  PUY1120    -0.3060
     20  C2'       28.9960  -52.3210  -53.0540 C.3   1120  PUY1120     0.1210
     21  O2'       28.1080  -52.4400  -54.1890 O.3   1120  PUY1120    -0.3854
     22  C1'       30.2290  -51.7890  -53.2990 C.3   1120  PUY1120     0.1659
     23  N1        31.2910  -54.8560  -49.4490 N.ar  1120  PUY1120    -0.2185
     24  C2        30.1620  -54.1860  -49.7260 C.ar  1120  PUY1120     0.1205
     25  N3        30.1200  -53.4110  -50.8310 N.ar  1120  PUY1120    -0.2159
     26  C4        31.1830  -53.3270  -51.6600 C.ar  1120  PUY1120     0.1674
     27  C5        32.2830  -54.0100  -51.3850 C.ar  1120  PUY1120     0.1477
     28  C6        32.3100  -54.8080  -50.2190 C.ar  1120  PUY1120     0.1518
     29  N6        32.9160  -55.7280  -49.2740 N.pl3 1120  PUY1120    -0.3195
     30  N7        33.0580  -53.6780  -52.3850 N.ar  1120  PUY1120    -0.2305
     31  C8        32.4520  -52.8430  -53.2200 C.ar  1120  PUY1120     0.1004
     32  C9        33.6210  -55.2300  -48.1400 C.3   1120  PUY1120     0.0017
     33  N9        31.2620  -52.6160  -52.7640 N.ar  1120  PUY1120    -0.2855
     34  C10       32.7030  -57.1510  -49.3100 C.3   1120  PUY1120     0.0017
     35 H          24.8588  -48.6260  -50.0649 H     1120  PUY1120     0.1189
     36 H          23.2336  -48.8893  -50.3175 H     1120  PUY1120     0.1189
     37 H          24.3161  -51.0951  -50.1878 H     1120  PUY1120     0.0557
     38 H          23.8089  -51.5441  -52.5673 H     1120  PUY1120     0.0333
     39 H          23.0099  -49.8331  -52.2559 H     1120  PUY1120     0.0333
     40 H          22.4635  -52.9325  -50.4423 H     1120  PUY1120     0.0621
     41 H          20.9488  -50.2332  -53.1069 H     1120  PUY1120     0.0621
     42 H          20.2855  -53.8773  -50.1756 H     1120  PUY1120     0.0654
     43 H          18.7254  -51.1418  -52.8895 H     1120  PUY1120     0.0654
     44 H          17.0307  -54.8712  -50.7016 H     1120  PUY1120     0.0660
     45 H          18.3642  -54.3437  -49.7033 H     1120  PUY1120     0.0660
     46 H          18.6740  -55.2160  -51.1853 H     1120  PUY1120     0.0660
     47 H          28.9397  -51.1667  -49.7725 H     1120  PUY1120     0.0583
     48 H          28.8996  -49.3955  -49.8142 H     1120  PUY1120     0.0583
     49 H          31.1508  -51.0173  -50.1389 H     1120  PUY1120     0.2095
     50 H          28.8025  -49.3368  -51.9768 H     1120  PUY1120     0.0639
     51 H          28.0333  -52.0519  -51.1214 H     1120  PUY1120     0.0552
     52 H          26.2952  -51.9552  -52.7611 H     1120  PUY1120     0.1492
     53 H          29.2508  -53.3048  -52.7193 H     1120  PUY1120     0.0658
     54 H          27.8670  -51.5552  -54.5052 H     1120  PUY1120     0.2101
     55 H          30.3701  -51.6705  -54.3530 H     1120  PUY1120     0.0866
     56 H          29.3406  -54.2616  -49.1058 H     1120  PUY1120     0.1048
     57 H          32.8581  -52.4448  -54.0812 H     1120  PUY1120     0.1030
     58 H          33.7200  -54.1676  -48.2199 H     1120  PUY1120     0.0428
     59 H          34.5925  -55.6767  -48.0995 H     1120  PUY1120     0.0428
     60 H          33.0799  -55.4718  -47.2492 H     1120  PUY1120     0.0428
     61 H          32.1678  -57.4091  -50.1998 H     1120  PUY1120     0.0428
     62 H          32.1351  -57.4484  -48.4533 H     1120  PUY1120     0.0428
     63 H          33.6477  -57.6533  -49.3037 H     1120  PUY1120     0.0428
@<TRIPOS>BOND
     1     1     2    1
     2     2     3    1
     3     2     5    1
     4     3    19   am
     5     3     4    2
     6     5     6    1
     7     6     7   ar
     8     6     8   ar
     9     7     9   ar
    10     8    10   ar
    11     9    11   ar
    12    10    11   ar
    13    11    13    1
    14    12    13    1
    15    14    16    1
    16    14    15    1
    17    16    17    1
    18    16    18    1
    19    17    22    1
    20    18    19    1
    21    18    20    1
    22    20    21    1
    23    20    22    1
    24    22    33    1
    25    23    28   ar
    26    23    24   ar
    27    24    25   ar
    28    25    26   ar
    29    26    27   ar
    30    26    33   ar
    31    27    30   ar
    32    27    28   ar
    33    28    29    1
    34    29    32    1
    35    29    34    1
    36    30    31   ar
    37    31    33   ar
    38     1    35    1
    39     1    36    1
    40     2    37    1
    41     5    38    1
    42     5    39    1
    43     7    40    1
    44     8    41    1
    45     9    42    1
    46    10    43    1
    47    12    44    1
    48    12    45    1
    49    12    46    1
    50    14    47    1
    51    14    48    1
    52    15    49    1
    53    16    50    1
    54    18    51    1
    55    19    52    1
    56    20    53    1
    57    21    54    1
    58    22    55    1
    59    24    56    1
    60    31    57    1
    61    32    58    1
    62    32    59    1
    63    32    60    1
    64    34    61    1
    65    34    62    1
    66    34    63    1
