@<TRIPOS>MOLECULE
rbt.pdb
 129 134 0 0 0
SMALL
GASTEIGER

@<TRIPOS>ATOM
      1  C1        19.4900  -50.0250  -48.7040 C.2   1111  RBT1111     0.1931
      2  N1        20.0870  -49.3610  -46.4720 N.am  1111  RBT1111    -0.3001
      3  O1        19.7940  -48.8980  -49.0980 O.2   1111  RBT1111    -0.2895
      4  C2        19.5920  -50.3510  -47.3350 C.3   1111  RBT1111     0.1259
      5  N2        19.1500  -52.2670  -45.7330 N.pl3 1111  RBT1111    -0.3234
      6  O2        19.1430  -49.4330  -51.4720 O.3   1111  RBT1111    -0.5057
      7  C3        19.2430  -51.6520  -46.9240 C.2   1111  RBT1111     0.0555
      8  N3        18.7750  -53.8330  -47.3670 N.pl3 1111  RBT1111    -0.3216
      9  O3        17.6960  -53.9070  -52.3750 O.3   1111  RBT1111    -0.4436
     10  C4        18.9090  -52.6450  -47.8570 C.2   1111  RBT1111     0.0568
     11  N4        17.5000  -55.9940  -44.4170 N.3   1111  RBT1111    -0.3018
     12  O4        17.8280  -55.4330  -49.1800 O.2   1111  RBT1111    -0.2836
     13  C5        18.2870  -53.2800  -50.2120 C.ar  1111  RBT1111     0.0771
     14  O5        16.2200  -55.6160  -51.6820 O.2   1111  RBT1111    -0.4528
     15  C6        18.1390  -52.9110  -51.5470 C.ar  1111  RBT1111     0.1435
     16  O6        12.2010  -53.2090  -50.9880 O.3   1111  RBT1111    -0.3753
     17  C7        18.4200  -51.6230  -52.0050 C.ar  1111  RBT1111     0.0341
     18  O7        13.2030  -50.9250  -51.5750 O.3   1111  RBT1111    -0.4608
     19  C8        18.8670  -50.6870  -51.0550 C.ar  1111  RBT1111     0.1344
     20  O8        12.9120  -49.5150  -53.2920 O.2   1111  RBT1111    -0.2512
     21  C9        19.0220  -51.0310  -49.6940 C.ar  1111  RBT1111     0.0711
     22  O9        16.2050  -49.0410  -51.3340 O.3   1111  RBT1111    -0.3910
     23  C10       18.7340  -52.3350  -49.2580 C.ar  1111  RBT1111     0.0258
     24  O10       17.5640  -47.4070  -49.5530 O.3   1111  RBT1111    -0.3912
     25  C11       17.8950  -54.6870  -50.1390 C.2   1111  RBT1111     0.2504
     26  O11       19.1840  -49.6470  -44.3890 O.2   1111  RBT1111    -0.2755
     27  C12       17.5410  -55.1270  -51.5600 C.3   1111  RBT1111     0.3143
     28  C13       18.4700  -56.1950  -52.0720 C.3   1111  RBT1111     0.0210
     29  C14       18.2480  -51.2730  -53.4590 C.3   1111  RBT1111    -0.0327
     30  C15       19.5430  -48.9140  -45.3150 C.2   1111  RBT1111     0.2167
     31  C16       19.3940  -47.4950  -45.1940 C.3   1111  RBT1111     0.0328
     32  C17       19.4770  -46.7020  -46.2770 C.3   1111  RBT1111    -0.0422
     33  C18       18.4770  -45.8640  -46.8890 C.3   1111  RBT1111    -0.0521
     34  C19       17.1910  -46.1710  -46.9730 C.3   1111  RBT1111    -0.0481
     35  C20       16.2980  -45.9200  -48.1580 C.3   1111  RBT1111    -0.0175
     36  C21       16.2500  -47.1730  -49.0450 C.3   1111  RBT1111     0.0627
     37  C22       15.2430  -47.1290  -50.2120 C.3   1111  RBT1111     0.0088
     38  C23       14.9800  -48.5190  -50.8300 C.3   1111  RBT1111     0.0661
     39  C24       14.3140  -49.5540  -49.8920 C.3   1111  RBT1111     0.0200
     40  C25       14.2370  -50.9520  -50.5430 C.3   1111  RBT1111     0.1131
     41  C26       13.8790  -52.1020  -49.5850 C.3   1111  RBT1111     0.0236
     42  C27       13.4540  -53.4130  -50.2790 C.3   1111  RBT1111     0.0854
     43  C28       14.5090  -53.9720  -51.1930 C.2   1111  RBT1111    -0.0208
     44  C29       15.2320  -55.0380  -50.8900 C.2   1111  RBT1111     0.0882
     45  C30       19.2860  -46.9670  -43.7880 C.3   1111  RBT1111    -0.0541
     46  C31       14.9150  -45.4980  -47.6850 C.3   1111  RBT1111    -0.0601
     47  C32       15.6790  -46.1250  -51.2880 C.3   1111  RBT1111    -0.0577
     48  C33       12.9330  -49.0720  -49.4240 C.3   1111  RBT1111    -0.0567
     49  C34       15.0190  -52.3620  -48.6120 C.3   1111  RBT1111    -0.0564
     50  C35       13.4720  -50.4620  -52.8150 C.2   1111  RBT1111     0.3042
     51  C36       14.5030  -51.2750  -53.5200 C.3   1111  RBT1111     0.0332
     52  C37       11.8840  -54.1940  -51.9680 C.3   1111  RBT1111     0.0372
     53  C38       18.6450  -53.6510  -45.9120 C.3   1111  RBT1111     0.0988
     54  C39       17.1860  -53.8050  -45.5230 C.3   1111  RBT1111    -0.0022
     55  C40       19.4730  -54.6920  -45.1820 C.3   1111  RBT1111    -0.0022
     56  C41       17.0160  -54.6140  -44.2500 C.3   1111  RBT1111     0.0024
     57  C42       18.7770  -56.0410  -45.1510 C.3   1111  RBT1111     0.0024
     58  C43       16.4810  -56.8710  -45.0130 C.3   1111  RBT1111     0.0012
     59  C44       15.9310  -57.8890  -44.0210 C.3   1111  RBT1111    -0.0339
     60  C45       14.7740  -57.3020  -43.2210 C.3   1111  RBT1111    -0.0615
     61  C46       15.4990  -59.1630  -44.7380 C.3   1111  RBT1111    -0.0615
     62 H          20.9349  -48.9391  -46.7411 H     1111  RBT1111     0.1498
     63 H          19.1112  -50.5370  -46.3974 H     1111  RBT1111     0.0645
     64 H          19.3829  -51.8590  -44.8678 H     1111  RBT1111     0.1479
     65 H          19.0397  -49.2063  -52.3753 H     1111  RBT1111     0.2922
     66 H          18.7624  -54.6831  -47.8634 H     1111  RBT1111     0.1482
     67 H          16.6175  -48.3881  -51.9209 H     1111  RBT1111     0.2098
     68 H          18.1951  -47.4342  -48.8169 H     1111  RBT1111     0.2098
     69 H          18.1842  -56.4698  -53.0658 H     1111  RBT1111     0.0309
     70 H          18.4134  -57.0525  -51.4346 H     1111  RBT1111     0.0309
     71 H          19.4728  -55.8218  -52.0796 H     1111  RBT1111     0.0309
     72 H          17.9009  -52.1322  -53.9940 H     1111  RBT1111     0.0280
     73 H          19.1868  -50.9565  -53.8631 H     1111  RBT1111     0.0280
     74 H          17.5341  -50.4816  -53.5533 H     1111  RBT1111     0.0280
     75 H          18.5229  -47.0257  -45.6012 H     1111  RBT1111     0.0391
     76 H          19.7804  -47.3627  -47.0621 H     1111  RBT1111     0.0272
     77 H          20.0646  -45.9232  -45.8375 H     1111  RBT1111     0.0272
     78 H          18.8038  -45.7151  -47.8969 H     1111  RBT1111     0.0266
     79 H          18.4426  -45.0538  -46.1910 H     1111  RBT1111     0.0266
     80 H          16.7261  -45.6575  -46.1575 H     1111  RBT1111     0.0269
     81 H          17.2605  -47.2377  -47.0193 H     1111  RBT1111     0.0269
     82 H          16.6917  -45.1197  -48.7491 H     1111  RBT1111     0.0323
     83 H          15.9013  -47.9682  -48.4198 H     1111  RBT1111     0.0599
     84 H          14.3153  -46.7965  -49.7951 H     1111  RBT1111     0.0348
     85 H          14.2638  -48.3579  -51.6084 H     1111  RBT1111     0.0600
     86 H          14.9354  -49.6466  -49.0259 H     1111  RBT1111     0.0359
     87 H          15.2207  -51.1471  -50.9162 H     1111  RBT1111     0.0741
     88 H          13.0124  -51.7668  -49.0544 H     1111  RBT1111     0.0362
     89 H          13.3171  -54.1469  -49.5124 H     1111  RBT1111     0.0645
     90 H          14.6767  -53.5033  -52.0970 H     1111  RBT1111     0.0628
     91 H          15.0453  -55.4840  -49.9783 H     1111  RBT1111     0.1022
     92 H          20.1007  -47.3401  -43.2033 H     1111  RBT1111     0.0237
     93 H          18.3610  -47.2880  -43.3565 H     1111  RBT1111     0.0237
     94 H          19.3196  -45.8977  -43.8050 H     1111  RBT1111     0.0237
     95 H          14.4889  -46.2773  -47.0883 H     1111  RBT1111     0.0233
     96 H          14.2885  -45.3149  -48.5329 H     1111  RBT1111     0.0233
     97 H          14.9949  -44.6049  -47.1011 H     1111  RBT1111     0.0233
     98 H          16.6067  -46.4420  -51.7167 H     1111  RBT1111     0.0234
     99 H          15.8024  -45.1588  -50.8452 H     1111  RBT1111     0.0234
    100 H          14.9318  -46.0743  -52.0522 H     1111  RBT1111     0.0234
    101 H          12.2857  -48.9690  -50.2698 H     1111  RBT1111     0.0234
    102 H          13.0326  -48.1261  -48.9338 H     1111  RBT1111     0.0234
    103 H          12.5185  -49.7850  -48.7423 H     1111  RBT1111     0.0234
    104 H          15.8799  -52.6964  -49.1524 H     1111  RBT1111     0.0234
    105 H          14.7243  -53.1138  -47.9100 H     1111  RBT1111     0.0234
    106 H          15.2547  -51.4587  -48.0892 H     1111  RBT1111     0.0234
    107 H          14.8423  -52.0582  -52.8747 H     1111  RBT1111     0.0342
    108 H          15.3292  -50.6497  -53.7868 H     1111  RBT1111     0.0342
    109 H          14.0778  -51.7009  -54.4047 H     1111  RBT1111     0.0342
    110 H          10.9487  -53.9517  -52.4277 H     1111  RBT1111     0.0524
    111 H          11.8132  -55.1534  -51.4995 H     1111  RBT1111     0.0524
    112 H          12.6521  -54.2165  -52.7126 H     1111  RBT1111     0.0524
    113 H          16.6675  -54.2995  -46.3177 H     1111  RBT1111     0.0314
    114 H          16.7872  -52.8277  -45.3477 H     1111  RBT1111     0.0314
    115 H          19.6366  -54.3629  -44.1771 H     1111  RBT1111     0.0314
    116 H          20.4004  -54.8066  -45.7033 H     1111  RBT1111     0.0314
    117 H          17.5694  -54.1446  -43.4636 H     1111  RBT1111     0.0428
    118 H          15.9731  -54.6511  -44.0135 H     1111  RBT1111     0.0428
    119 H          18.5848  -56.3524  -46.1565 H     1111  RBT1111     0.0428
    120 H          19.4205  -56.7301  -44.6451 H     1111  RBT1111     0.0428
    121 H          16.9197  -57.3964  -45.8355 H     1111  RBT1111     0.0429
    122 H          15.6663  -56.2533  -45.3287 H     1111  RBT1111     0.0429
    123 H          16.7141  -58.1387  -43.3359 H     1111  RBT1111     0.0308
    124 H          13.9760  -57.0435  -43.8853 H     1111  RBT1111     0.0233
    125 H          15.1059  -56.4258  -42.7043 H     1111  RBT1111     0.0233
    126 H          14.4278  -58.0246  -42.5119 H     1111  RBT1111     0.0233
    127 H          14.7148  -58.9348  -45.4293 H     1111  RBT1111     0.0233
    128 H          15.1461  -59.8740  -44.0204 H     1111  RBT1111     0.0233
    129 H          16.3328  -59.5745  -45.2675 H     1111  RBT1111     0.0233
@<TRIPOS>BOND
     1     1     3    2
     2     1     4    1
     3     1    21    1
     4     2     4    1
     5     2    30   am
     6     4     7    1
     7     5     7    1
     8     5    53    1
     9     6    19    1
    10     7    10    2
    11     8    10    1
    12     8    53    1
    13     9    15    1
    14     9    27    1
    15    10    23    1
    16    11    56    1
    17    11    57    1
    18    11    58    1
    19    12    25    2
    20    13    15   ar
    21    13    23   ar
    22    13    25    1
    23    14    27    1
    24    14    44    1
    25    15    17   ar
    26    16    42    1
    27    16    52    1
    28    17    19   ar
    29    17    29    1
    30    18    40    1
    31    18    50    1
    32    19    21   ar
    33    20    50    2
    34    21    23   ar
    35    22    38    1
    36    24    36    1
    37    25    27    1
    38    26    30    2
    39    27    28    1
    40    30    31    1
    41    31    32    1
    42    31    45    1
    43    32    33    1
    44    33    34    1
    45    34    35    1
    46    35    36    1
    47    35    46    1
    48    36    37    1
    49    37    38    1
    50    37    47    1
    51    38    39    1
    52    39    40    1
    53    39    48    1
    54    40    41    1
    55    41    42    1
    56    41    49    1
    57    42    43    1
    58    43    44    2
    59    50    51    1
    60    53    54    1
    61    53    55    1
    62    54    56    1
    63    55    57    1
    64    58    59    1
    65    59    60    1
    66    59    61    1
    67     2    62    1
    68     4    63    1
    69     5    64    1
    70     6    65    1
    71     8    66    1
    72    22    67    1
    73    24    68    1
    74    28    69    1
    75    28    70    1
    76    28    71    1
    77    29    72    1
    78    29    73    1
    79    29    74    1
    80    31    75    1
    81    32    76    1
    82    32    77    1
    83    33    78    1
    84    33    79    1
    85    34    80    1
    86    34    81    1
    87    35    82    1
    88    36    83    1
    89    37    84    1
    90    38    85    1
    91    39    86    1
    92    40    87    1
    93    41    88    1
    94    42    89    1
    95    43    90    1
    96    44    91    1
    97    45    92    1
    98    45    93    1
    99    45    94    1
   100    46    95    1
   101    46    96    1
   102    46    97    1
   103    47    98    1
   104    47    99    1
   105    47   100    1
   106    48   101    1
   107    48   102    1
   108    48   103    1
   109    49   104    1
   110    49   105    1
   111    49   106    1
   112    51   107    1
   113    51   108    1
   114    51   109    1
   115    52   110    1
   116    52   111    1
   117    52   112    1
   118    54   113    1
   119    54   114    1
   120    55   115    1
   121    55   116    1
   122    56   117    1
   123    56   118    1
   124    57   119    1
   125    57   120    1
   126    58   121    1
   127    58   122    1
   128    59   123    1
   129    60   124    1
   130    60   125    1
   131    60   126    1
   132    61   127    1
   133    61   128    1
   134    61   129    1
