@<TRIPOS>MOLECULE
rfp.pdb
 119 123 0 0 0
SMALL
GASTEIGER

@<TRIPOS>ATOM
      1  C1       -36.3500  -23.0510  -15.6700 C.ar  2002  RFP2002     0.1500
      2  N1       -37.5160  -24.4960  -14.1390 N.am  2002  RFP2002    -0.2782
      3  O1       -37.4070  -23.1670  -16.5200 O.3   2002  RFP2002    -0.5042
      4  C2       -36.3930  -23.7140  -14.4500 C.ar  2002  RFP2002     0.0886
      5  N2       -35.9790  -24.0270  -11.2310 N.2   2002  RFP2002    -0.1917
      6  O2       -36.2730  -21.7020  -18.1310 O.3   2002  RFP2002    -0.5057
      7  C3       -35.3260  -23.6170  -13.5580 C.ar  2002  RFP2002     0.0613
      8  N3       -35.8410  -24.7470  -10.1070 N.pl3 2002  RFP2002    -0.2531
      9  O3       -31.8820  -20.0540  -16.9000 O.3   2002  RFP2002    -0.4479
     10  C4       -34.2160  -22.8560  -13.9010 C.ar  2002  RFP2002     0.1357
     11  N4       -38.2370  -23.9150   -8.7060 N.3   2002  RFP2002    -0.3023
     12  O4       -31.2230  -22.1810  -14.1080 O.3   2002  RFP2002    -0.3793
     13  C5       -33.0730  -21.3860  -15.5290 C.ar  2002  RFP2002     0.0419
     14  O5       -30.1760  -21.7290  -16.5550 O.2   2002  RFP2002    -0.4565
     15  C6       -33.0660  -20.7270  -16.7380 C.ar  2002  RFP2002     0.1383
     16  O6       -31.1620  -25.7640  -17.5040 O.3   2002  RFP2002    -0.3753
     17  C7       -34.1230  -20.8240  -17.6340 C.ar  2002  RFP2002     0.0338
     18  O7       -30.7010  -28.0540  -14.6780 O.3   2002  RFP2002    -0.4608
     19  C8       -35.2200  -21.6040  -17.2680 C.ar  2002  RFP2002     0.1346
     20  O8       -31.0610  -29.6860  -16.3070 O.2   2002  RFP2002    -0.2512
     21  C9       -35.2430  -22.2770  -16.0290 C.ar  2002  RFP2002     0.0711
     22  O9       -34.1080  -29.1010  -14.6630 O.3   2002  RFP2002    -0.3910
     23  C10      -34.1630  -22.1800  -15.1350 C.ar  2002  RFP2002     0.0407
     24  O10      -36.2080  -29.0890  -13.9860 O.3   2002  RFP2002    -0.3909
     25  C11      -31.8000  -21.0810  -14.8190 C.3   2002  RFP2002     0.1605
     26  O11      -38.3610  -23.0190  -12.7040 O.2   2002  RFP2002    -0.2702
     27  C12      -30.9200  -20.6170  -15.9820 C.3   2002  RFP2002     0.2799
     28  O12      -33.1960  -22.7910  -12.9930 O.3   2002  RFP2002    -0.5054
     29  C13      -29.9230  -19.5600  -15.5350 C.3   2002  RFP2002     0.0158
     30  C14      -34.0830  -20.1010  -18.9640 C.3   2002  RFP2002    -0.0327
     31  C15      -38.4330  -24.1020  -13.2670 C.2   2002  RFP2002     0.2441
     32  C16      -39.5590  -25.0160  -13.0230 C.2   2002  RFP2002     0.0115
     33  C17      -39.4640  -26.3340  -12.7220 C.2   2002  RFP2002    -0.0542
     34  C18      -38.2500  -27.1400  -12.5640 C.2   2002  RFP2002    -0.0649
     35  C19      -38.3340  -28.3730  -12.0460 C.2   2002  RFP2002    -0.0787
     36  C20      -37.1330  -29.2800  -11.8290 C.3   2002  RFP2002     0.0009
     37  C21      -35.9280  -28.7560  -12.6260 C.3   2002  RFP2002     0.0661
     38  C22      -34.4880  -29.1950  -12.2570 C.3   2002  RFP2002     0.0091
     39  C23      -33.4710  -28.9370  -13.3880 C.3   2002  RFP2002     0.0661
     40  C24      -32.7480  -27.5780  -13.3930 C.3   2002  RFP2002     0.0200
     41  C25      -31.9800  -27.3890  -14.7180 C.3   2002  RFP2002     0.1131
     42  C26      -31.9070  -25.9180  -15.1760 C.3   2002  RFP2002     0.0236
     43  C27      -30.7570  -25.5710  -16.1460 C.3   2002  RFP2002     0.0854
     44  C28      -30.2830  -24.1330  -15.9710 C.2   2002  RFP2002    -0.0208
     45  C29      -30.6590  -23.1090  -16.7660 C.2   2002  RFP2002     0.0879
     46  C30      -40.9410  -24.4520  -13.1060 C.3   2002  RFP2002    -0.0348
     47  C31      -36.9090  -29.3840  -10.3210 C.3   2002  RFP2002    -0.0566
     48  C32      -34.3410  -30.6510  -11.8050 C.3   2002  RFP2002    -0.0577
     49  C33      -31.8460  -27.3720  -12.1740 C.3   2002  RFP2002    -0.0567
     50  C34      -33.2610  -25.5390  -15.7760 C.3   2002  RFP2002    -0.0564
     51  C35      -30.6940  -29.4450  -15.1620 C.2   2002  RFP2002     0.3042
     52  C36      -30.2210  -30.5440  -14.2450 C.3   2002  RFP2002     0.0332
     53  C37      -30.4730  -26.8370  -18.1450 C.3   2002  RFP2002     0.0372
     54  C38      -38.6690  -22.7020   -9.4260 C.3   2002  RFP2002    -0.0126
     55  C39      -38.2960  -25.0520   -9.6500 C.3   2002  RFP2002     0.0159
     56  C40      -36.9420  -25.7150   -9.9220 C.3   2002  RFP2002     0.0425
     57  C41      -35.6730  -23.8570   -8.9310 C.3   2002  RFP2002     0.0425
     58  C42      -36.9170  -23.7420   -8.0430 C.3   2002  RFP2002     0.0159
     59  C43      -35.2960  -24.3290  -12.2460 C.2   2002  RFP2002     0.0580
     60 H         -37.6265  -25.3673  -14.5839 H     2002  RFP2002     0.1552
     61 H         -38.1483  -23.6863  -16.2776 H     2002  RFP2002     0.2923
     62 H         -36.2492  -21.2514  -18.9522 H     2002  RFP2002     0.2922
     63 H         -31.8117  -22.4415  -13.3824 H     2002  RFP2002     0.2106
     64 H         -34.5720  -29.9525  -14.6855 H     2002  RFP2002     0.2098
     65 H         -37.1104  -28.8108  -14.2078 H     2002  RFP2002     0.2098
     66 H         -31.9312  -20.3681  -14.0319 H     2002  RFP2002     0.0724
     67 H         -33.2621  -23.2527  -12.1803 H     2002  RFP2002     0.2922
     68 H         -29.3251  -19.2581  -16.3694 H     2002  RFP2002     0.0305
     69 H         -29.2917  -19.9651  -14.7719 H     2002  RFP2002     0.0305
     70 H         -30.4504  -18.7128  -15.1490 H     2002  RFP2002     0.0305
     71 H         -33.1621  -19.5630  -19.0499 H     2002  RFP2002     0.0280
     72 H         -34.9030  -19.4161  -19.0225 H     2002  RFP2002     0.0280
     73 H         -34.1556  -20.8131  -19.7594 H     2002  RFP2002     0.0280
     74 H         -40.3577  -26.8322  -12.5873 H     2002  RFP2002     0.0622
     75 H         -37.3345  -26.7595  -12.8505 H     2002  RFP2002     0.0615
     76 H         -39.2661  -28.7268  -11.7794 H     2002  RFP2002     0.0576
     77 H         -37.2935  -30.2707  -12.2000 H     2002  RFP2002     0.0365
     78 H         -35.8659  -27.7146  -12.3882 H     2002  RFP2002     0.0602
     79 H         -34.2714  -28.5718  -11.4146 H     2002  RFP2002     0.0348
     80 H         -32.7074  -29.6617  -13.1966 H     2002  RFP2002     0.0600
     81 H         -33.4978  -26.8181  -13.3215 H     2002  RFP2002     0.0359
     82 H         -32.5485  -27.8710  -15.4857 H     2002  RFP2002     0.0741
     83 H         -31.6805  -25.3392  -14.3051 H     2002  RFP2002     0.0362
     84 H         -29.9472  -26.2303  -15.9128 H     2002  RFP2002     0.0645
     85 H         -29.6333  -23.9293  -15.1954 H     2002  RFP2002     0.0628
     86 H         -31.3059  -23.2966  -17.5479 H     2002  RFP2002     0.1022
     87 H         -40.8875  -23.4111  -13.3481 H     2002  RFP2002     0.0279
     88 H         -41.4333  -24.5742  -12.1639 H     2002  RFP2002     0.0279
     89 H         -41.4914  -24.9670  -13.8654 H     2002  RFP2002     0.0279
     90 H         -36.7447  -28.4071   -9.9166 H     2002  RFP2002     0.0236
     91 H         -36.0540  -29.9979  -10.1289 H     2002  RFP2002     0.0236
     92 H         -37.7715  -29.8198   -9.8615 H     2002  RFP2002     0.0236
     93 H         -34.5516  -31.3027  -12.6271 H     2002  RFP2002     0.0234
     94 H         -35.0277  -30.8483  -11.0085 H     2002  RFP2002     0.0234
     95 H         -33.3410  -30.8193  -11.4636 H     2002  RFP2002     0.0234
     96 H         -31.0657  -28.1041  -12.1799 H     2002  RFP2002     0.0234
     97 H         -32.4252  -27.4753  -11.2802 H     2002  RFP2002     0.0234
     98 H         -31.4165  -26.3926  -12.2095 H     2002  RFP2002     0.0234
     99 H         -33.4480  -26.1392  -16.6418 H     2002  RFP2002     0.0234
    100 H         -33.2514  -24.5057  -16.0536 H     2002  RFP2002     0.0234
    101 H         -34.0313  -25.7068  -15.0525 H     2002  RFP2002     0.0234
    102 H         -29.9480  -30.1260  -13.2986 H     2002  RFP2002     0.0342
    103 H         -29.3719  -31.0297  -14.6787 H     2002  RFP2002     0.0342
    104 H         -31.0074  -31.2564  -14.1068 H     2002  RFP2002     0.0342
    105 H         -30.8183  -26.9307  -19.1534 H     2002  RFP2002     0.0524
    106 H         -30.6622  -27.7483  -17.6171 H     2002  RFP2002     0.0524
    107 H         -29.4220  -26.6365  -18.1450 H     2002  RFP2002     0.0524
    108 H         -39.6202  -22.8784   -9.8833 H     2002  RFP2002     0.0391
    109 H         -37.9499  -22.4600  -10.1805 H     2002  RFP2002     0.0391
    110 H         -38.7502  -21.8879   -8.7365 H     2002  RFP2002     0.0391
    111 H         -38.6878  -24.6958  -10.5798 H     2002  RFP2002     0.0442
    112 H         -38.9164  -25.7961   -9.1958 H     2002  RFP2002     0.0442
    113 H         -36.7016  -26.3477   -9.0933 H     2002  RFP2002     0.0492
    114 H         -37.0369  -26.2637  -10.8357 H     2002  RFP2002     0.0492
    115 H         -35.4222  -22.8787   -9.2845 H     2002  RFP2002     0.0492
    116 H         -34.9043  -24.2909   -8.3262 H     2002  RFP2002     0.0492
    117 H         -36.8389  -24.4876   -7.2795 H     2002  RFP2002     0.0442
    118 H         -36.9137  -22.7323   -7.6888 H     2002  RFP2002     0.0442
    119 H         -34.6611  -25.1384  -12.1632 H     2002  RFP2002     0.0853
@<TRIPOS>BOND
     1     1     3    1
     2     1     4   ar
     3     1    21   ar
     4     2     4    1
     5     2    31   am
     6     4     7   ar
     7     5     8    1
     8     5    59    2
     9     6    19    1
    10     7    10   ar
    11     7    59    1
    12     8    56    1
    13     8    57    1
    14     9    15    1
    15     9    27    1
    16    10    23   ar
    17    10    28    1
    18    11    54    1
    19    11    55    1
    20    11    58    1
    21    12    25    1
    22    13    15   ar
    23    13    23   ar
    24    13    25    1
    25    14    27    1
    26    14    45    1
    27    15    17   ar
    28    16    43    1
    29    16    53    1
    30    17    19   ar
    31    17    30    1
    32    18    41    1
    33    18    51    1
    34    19    21   ar
    35    20    51    2
    36    21    23   ar
    37    22    39    1
    38    24    37    1
    39    25    27    1
    40    26    31    2
    41    27    29    1
    42    31    32    1
    43    32    33    2
    44    32    46    1
    45    33    34    1
    46    34    35    2
    47    35    36    1
    48    36    37    1
    49    36    47    1
    50    37    38    1
    51    38    39    1
    52    38    48    1
    53    39    40    1
    54    40    41    1
    55    40    49    1
    56    41    42    1
    57    42    43    1
    58    42    50    1
    59    43    44    1
    60    44    45    2
    61    51    52    1
    62    55    56    1
    63    57    58    1
    64     2    60    1
    65     3    61    1
    66     6    62    1
    67    12    63    1
    68    22    64    1
    69    24    65    1
    70    25    66    1
    71    28    67    1
    72    29    68    1
    73    29    69    1
    74    29    70    1
    75    30    71    1
    76    30    72    1
    77    30    73    1
    78    33    74    1
    79    34    75    1
    80    35    76    1
    81    36    77    1
    82    37    78    1
    83    38    79    1
    84    39    80    1
    85    40    81    1
    86    41    82    1
    87    42    83    1
    88    43    84    1
    89    44    85    1
    90    45    86    1
    91    46    87    1
    92    46    88    1
    93    46    89    1
    94    47    90    1
    95    47    91    1
    96    47    92    1
    97    48    93    1
    98    48    94    1
    99    48    95    1
   100    49    96    1
   101    49    97    1
   102    49    98    1
   103    50    99    1
   104    50   100    1
   105    50   101    1
   106    52   102    1
   107    52   103    1
   108    52   104    1
   109    53   105    1
   110    53   106    1
   111    53   107    1
   112    54   108    1
   113    54   109    1
   114    54   110    1
   115    55   111    1
   116    55   112    1
   117    56   113    1
   118    56   114    1
   119    57   115    1
   120    57   116    1
   121    58   117    1
   122    58   118    1
   123    59   119    1
