@<TRIPOS>MOLECULE
rhq.pdb
 63 66 0 0 0
SMALL
GASTEIGER

@<TRIPOS>ATOM
      1  C1        -4.2370   76.2690  205.9680 C.2   2001  RHQ2001     0.1343
      2  N1         0.8310   73.0390  206.1180 N.pl3 2001  RHQ2001    -0.3438
      3  O1        -3.1960   75.4630  205.5620 O.3   2001  RHQ2001    -0.4553
      4  C2        -4.3130   76.7770  207.3670 C.2   2001  RHQ2001     0.0084
      5  N2        -7.2140   77.6960  204.4510 N.2   2001  RHQ2001    -0.2874
      6  O2        -4.9400   73.8900  211.5000 O.3   2001  RHQ2001    -0.4614
      7  C3        -5.3760   77.5910  207.7530 C.2   2001  RHQ2001    -0.0633
      8  C4        -6.3750   77.9370  206.8440 C.3   2001  RHQ2001     0.0426
      9  C5        -6.3050   77.4290  205.4290 C.2   2001  RHQ2001     0.0501
     10  C6        -5.2330   76.6140  205.0580 C.2   2001  RHQ2001     0.0027
     11  C7        -2.1710   75.0730  206.3960 C.ar  2001  RHQ2001     0.1346
     12  C8        -2.1300   75.5130  207.8200 C.ar  2001  RHQ2001     0.0117
     13  C9        -3.2330   76.3920  208.3350 C.3   2001  RHQ2001     0.0707
     14  C10       -1.1570   74.2550  205.9000 C.ar  2001  RHQ2001     0.0021
     15  C11       -0.1000   73.8380  206.7100 C.ar  2001  RHQ2001     0.0336
     16  C12       -0.0660   74.2860  208.1470 C.ar  2001  RHQ2001    -0.0291
     17  C13       -1.0820   75.1040  208.6410 C.ar  2001  RHQ2001    -0.0492
     18  C14       -3.2560   76.8780  209.7600 C.ar  2001  RHQ2001    -0.0169
     19  C15       -2.5000   77.9990  210.1020 C.ar  2001  RHQ2001    -0.0566
     20  C16       -2.5000   78.4750  211.4140 C.ar  2001  RHQ2001    -0.0614
     21  C17       -3.2540   77.8470  212.4060 C.ar  2001  RHQ2001    -0.0610
     22  C18       -4.0290   76.7230  212.1160 C.ar  2001  RHQ2001    -0.0475
     23  C19       -4.0660   76.2040  210.8220 C.ar  2001  RHQ2001     0.0634
     24  C20        1.0280   73.8920  209.1080 C.3   2001  RHQ2001    -0.0380
     25  C21       -7.4860   78.8220  207.3520 C.3   2001  RHQ2001    -0.0494
     26  C22        2.2010   72.8250  206.6070 C.3   2001  RHQ2001     0.0063
     27  C23        3.2220   72.9230  205.4800 C.3   2001  RHQ2001    -0.0496
     28  C24       -8.4080   78.5120  204.5850 C.3   2001  RHQ2001     0.0372
     29  C25       -9.0780   78.7620  203.2510 C.3   2001  RHQ2001    -0.0455
     30  C26       -4.9140   74.9910  210.5480 C.2   2001  RHQ2001     0.3395
     31  O27       -5.5990   74.9060  209.5410 O.2   2001  RHQ2001    -0.2450
     32  C28       -6.0610   73.7200  212.3700 C.3   2001  RHQ2001     0.0900
     33  C29       -6.4230   72.2530  212.4540 C.3   2001  RHQ2001    -0.0306
     34 H           0.5650   72.5666  205.2962 H     2001  RHQ2001     0.1461
     35 H          -5.4244   77.9416  208.7224 H     2001  RHQ2001     0.0586
     36 H          -5.1780   76.2604  204.0900 H     2001  RHQ2001     0.0672
     37 H          -1.1887   73.9518  204.9141 H     2001  RHQ2001     0.0673
     38 H          -1.0569   75.4097  209.6264 H     2001  RHQ2001     0.0625
     39 H          -1.9380   78.4788  209.3816 H     2001  RHQ2001     0.0621
     40 H          -1.9339   79.3038  211.6540 H     2001  RHQ2001     0.0618
     41 H          -3.2384   78.2191  213.3684 H     2001  RHQ2001     0.0618
     42 H          -4.5786   76.2727  212.8645 H     2001  RHQ2001     0.0626
     43 H           1.7376   73.2691  208.6047 H     2001  RHQ2001     0.0278
     44 H           0.6037   73.3561  209.9312 H     2001  RHQ2001     0.0278
     45 H           1.5187   74.7713  209.4698 H     2001  RHQ2001     0.0278
     46 H          -7.3169   79.0500  208.3837 H     2001  RHQ2001     0.0242
     47 H          -8.4222   78.3146  207.2476 H     2001  RHQ2001     0.0242
     48 H          -7.5069   79.7292  206.7850 H     2001  RHQ2001     0.0242
     49 H           2.2639   71.8524  207.0486 H     2001  RHQ2001     0.0458
     50 H           2.4221   73.5866  207.3254 H     2001  RHQ2001     0.0458
     51 H           3.0193   72.1688  204.7485 H     2001  RHQ2001     0.0245
     52 H           4.2056   72.7803  205.8764 H     2001  RHQ2001     0.0245
     53 H           3.1580   73.8887  205.0237 H     2001  RHQ2001     0.0245
     54 H          -8.1366   79.4527  205.0167 H     2001  RHQ2001     0.0505
     55 H          -9.0998   77.9847  205.2081 H     2001  RHQ2001     0.0505
     56 H          -8.4054   79.2895  202.6074 H     2001  RHQ2001     0.0247
     57 H          -9.9617   79.3467  203.3997 H     2001  RHQ2001     0.0247
     58 H          -9.3406   77.8265  202.8029 H     2001  RHQ2001     0.0247
     59 H          -6.8948   74.2709  211.9876 H     2001  RHQ2001     0.0695
     60 H          -5.8101   74.0797  213.3460 H     2001  RHQ2001     0.0695
     61 H          -6.6743   71.8912  211.4789 H     2001  RHQ2001     0.0262
     62 H          -7.2614   72.1293  213.1073 H     2001  RHQ2001     0.0262
     63 H          -5.5893   71.7012  212.8352 H     2001  RHQ2001     0.0262
@<TRIPOS>BOND
     1     1     3    1
     2     1     4    1
     3     1    10    2
     4     2    26    1
     5     2    15    1
     6     3    11    1
     7     4     7    2
     8     4    13    1
     9     5    28    1
    10     5     9    2
    11     6    32    1
    12     6    30    1
    13     7     8    1
    14     8     9    1
    15     8    25    1
    16     9    10    1
    17    11    12   ar
    18    11    14   ar
    19    12    13    1
    20    12    17   ar
    21    13    18    1
    22    14    15   ar
    23    15    16   ar
    24    16    17   ar
    25    16    24    1
    26    18    19   ar
    27    18    23   ar
    28    19    20   ar
    29    20    21   ar
    30    21    22   ar
    31    22    23   ar
    32    23    30    1
    33    26    27    1
    34    28    29    1
    35    30    31    2
    36    32    33    1
    37     2    34    1
    38     7    35    1
    39    10    36    1
    40    14    37    1
    41    17    38    1
    42    19    39    1
    43    20    40    1
    44    21    41    1
    45    22    42    1
    46    24    43    1
    47    24    44    1
    48    24    45    1
    49    25    46    1
    50    25    47    1
    51    25    48    1
    52    26    49    1
    53    26    50    1
    54    27    51    1
    55    27    52    1
    56    27    53    1
    57    28    54    1
    58    28    55    1
    59    29    56    1
    60    29    57    1
    61    29    58    1
    62    32    59    1
    63    32    60    1
    64    33    61    1
    65    33    62    1
    66    33    63    1
