@<TRIPOS>MOLECULE
zld.pdb
 44 46 0 0 0
SMALL
GASTEIGER

@<TRIPOS>ATOM
      1  C1        66.2850   39.9360  301.2920 C.ar  1101  ZLD1101    -0.0382
      2  C2        66.2700   40.4190  302.5950 C.ar  1101  ZLD1101     0.0424
      3  C3        66.4410   40.8110  300.2200 C.ar  1101  ZLD1101    -0.0361
      4  N4        66.1070   39.5280  303.6930 N.am  1101  ZLD1101    -0.2336
      5  C5        66.4050   41.7850  302.8240 C.ar  1101  ZLD1101    -0.0031
      6  C6        65.7360   39.9080  305.0320 C.3   1101  ZLD1101     0.0616
      7  C7        66.2790   38.0640  303.6920 C.2   1101  ZLD1101     0.4077
      8  C8        65.2430   38.6420  305.6430 C.3   1101  ZLD1101     0.1361
      9  C9        65.6540   38.5750  307.1190 C.3   1101  ZLD1101     0.0503
     10  O10       65.8030   37.5780  304.9410 O.3   1101  ZLD1101    -0.4436
     11  N11       64.7510   37.7120  307.8200 N.am  1101  ZLD1101    -0.3120
     12  C12       64.4650   37.9390  309.2140 C.2   1101  ZLD1101     0.2100
     13  C13       63.4990   37.0120  309.9590 C.3   1101  ZLD1101     0.0121
     14  O14       64.9870   38.8650  309.7980 O.2   1101  ZLD1101    -0.2761
     15  O15       66.7440   37.3860  302.8010 O.2   1101  ZLD1101    -0.2259
     16  C16       66.5610   42.6680  301.7520 C.ar  1101  ZLD1101     0.1461
     17  C17       66.5770   42.1780  300.4450 C.ar  1101  ZLD1101     0.0656
     18  N19       66.7350   43.0550  299.3040 N.pl3 1101  ZLD1101    -0.3233
     19  C20       65.7830   44.1210  299.0940 C.3   1101  ZLD1101     0.0358
     20  C21       66.2720   45.0290  297.9860 C.3   1101  ZLD1101     0.0634
     21  O22       67.6610   44.9130  297.8310 O.3   1101  ZLD1101    -0.3767
     22  C23       68.1490   43.6540  297.4380 C.3   1101  ZLD1101     0.0634
     23  C24       67.3910   42.5300  298.1320 C.3   1101  ZLD1101     0.0358
     24  F18       66.6930   43.9780  301.9950 F     1101  ZLD1101    -0.2035
     25 H          66.1800   38.9242  301.1181 H     1101  ZLD1101     0.0637
     26 H          66.4558   40.4447  299.2553 H     1101  ZLD1101     0.0637
     27 H          66.3898   42.1477  303.7900 H     1101  ZLD1101     0.0665
     28 H          64.9640   40.6488  305.0169 H     1101  ZLD1101     0.0507
     29 H          66.5492   40.3391  305.5778 H     1101  ZLD1101     0.0507
     30 H          64.1752   38.5972  305.5917 H     1101  ZLD1101     0.0766
     31 H          65.6163   39.5554  307.5460 H     1101  ZLD1101     0.0499
     32 H          66.6505   38.1935  307.1980 H     1101  ZLD1101     0.0499
     33 H          64.3242   36.9610  307.3477 H     1101  ZLD1101     0.1488
     34 H          63.1395   36.2589  309.2893 H     1101  ZLD1101     0.0322
     35 H          62.6734   37.5819  310.3312 H     1101  ZLD1101     0.0322
     36 H          64.0095   36.5478  310.7768 H     1101  ZLD1101     0.0322
     37 H          65.6767   44.6861  299.9964 H     1101  ZLD1101     0.0486
     38 H          64.8372   43.7031  298.8189 H     1101  ZLD1101     0.0486
     39 H          66.0284   46.0423  298.2283 H     1101  ZLD1101     0.0575
     40 H          65.7973   44.7435  297.0706 H     1101  ZLD1101     0.0575
     41 H          69.1858   43.5859  297.6936 H     1101  ZLD1101     0.0575
     42 H          68.0142   43.5524  296.3814 H     1101  ZLD1101     0.0575
     43 H          66.6601   42.1251  297.4637 H     1101  ZLD1101     0.0486
     44 H          68.0744   41.7577  298.4175 H     1101  ZLD1101     0.0486
@<TRIPOS>BOND
     1     1     3   ar
     2     1     2   ar
     3     2     4    1
     4     2     5   ar
     5     3    17   ar
     6     4     6    1
     7     4     7   am
     8     5    16   ar
     9     6     8    1
    10     7    10    1
    11     7    15    2
    12     8    10    1
    13     8     9    1
    14     9    11    1
    15    11    12   am
    16    12    13    1
    17    12    14    2
    18    16    17   ar
    19    16    24    1
    20    17    18    1
    21    18    19    1
    22    18    23    1
    23    19    20    1
    24    20    21    1
    25    21    22    1
    26    22    23    1
    27     1    25    1
    28     3    26    1
    29     5    27    1
    30     6    28    1
    31     6    29    1
    32     8    30    1
    33     9    31    1
    34     9    32    1
    35    11    33    1
    36    13    34    1
    37    13    35    1
    38    13    36    1
    39    19    37    1
    40    19    38    1
    41    20    39    1
    42    20    40    1
    43    22    41    1
    44    22    42    1
    45    23    43    1
    46    23    44    1
